
     RDKit          2D

 22 23  0  0  0  0  0  0  0  0999 V2000
    7.6091    1.6171    0.0000 C   0  0  0  0  0  0  0  0  0  0  0  0
    6.1133    1.7299    0.0000 C   0  0  0  0  0  0  0  0  0  0  0  0
    5.2677    0.4909    0.0000 N   0  0  0  0  0  0  0  0  0  0  0  0
    5.9179   -0.8608    0.0000 C   0  0  0  0  0  0  0  0  0  0  0  0
    7.4137   -0.9736    0.0000 C   0  0  0  0  0  0  0  0  0  0  0  0
    3.7720    0.6037    0.0000 C   0  0  0  0  0  0  0  0  0  0  0  0
    2.9264   -0.6352    0.0000 C   0  0  0  0  0  0  0  0  0  0  0  0
    1.4307   -0.5224    0.0000 C   0  0  0  0  0  0  0  0  0  0  0  0
    0.5851   -1.7614    0.0000 C   0  0  0  0  0  0  0  0  0  0  0  0
    1.2353   -3.1131    0.0000 C   0  0  0  0  0  0  0  0  0  0  0  0
   -0.9106   -1.6486    0.0000 N   0  0  0  0  0  0  0  0  0  0  0  0
   -1.5608   -0.2968    0.0000 C   0  0  0  0  0  0  0  0  0  0  0  0
   -3.0566   -0.1840    0.0000 C   0  0  0  0  0  0  0  0  0  0  0  0
   -3.9022   -1.4229    0.0000 C   0  0  0  0  0  0  0  0  0  0  0  0
   -5.3979   -1.3101    0.0000 C   0  0  0  0  0  0  0  0  0  0  0  0
   -6.0481    0.0416    0.0000 C   0  0  0  0  0  0  0  0  0  0  0  0
   -5.2025    1.2806    0.0000 C   0  0  0  0  0  0  0  0  0  0  0  0
   -3.7068    1.1678    0.0000 C   0  0  0  0  0  0  0  0  0  0  0  0
   -2.8612    2.4067    0.0000 N   0  0  0  0  0  0  0  0  0  0  0  0
   -1.3654    2.2939    0.0000 C   0  0  0  0  0  0  0  0  0  0  0  0
   -0.7153    0.9422    0.0000 C   0  0  0  0  0  0  0  0  0  0  0  0
   -7.5438    0.1544    0.0000 Cl  0  0  0  0  0  0  0  0  0  0  0  0
  1  2  1  0
  2  3  1  0
  3  4  1  0
  4  5  1  0
  3  6  1  0
  6  7  1  0
  7  8  1  0
  8  9  1  0
  9 10  1  0
  9 11  1  0
 11 12  1  0
 12 13  2  0
 13 14  1  0
 14 15  2  0
 15 16  1  0
 16 17  2  0
 17 18  1  0
 18 19  2  0
 19 20  1  0
 20 21  2  0
 16 22  1  0
 21 12  1  0
 18 13  1  0
M  END
>  <ID>  (1) 
REF_CHLOROQUINE

>  <NAME>  (1) 
Chloroquine

>  <ACTIVITY>  (1) 
Antimalarial

>  <CLASS>  (1) 
Quinoline

$$$$

     RDKit          2D

 24 27  0  0  0  0  0  0  0  0999 V2000
   -7.0258    1.0516    0.0000 C   0  0  0  0  0  0  0  0  0  0  0  0
   -6.1244   -0.1474    0.0000 C   0  0  0  0  0  0  0  0  0  0  0  0
   -4.6354    0.0338    0.0000 C   0  0  0  0  0  0  0  0  0  0  0  0
   -3.7340   -1.1652    0.0000 C   0  0  0  0  0  0  0  0  0  0  0  0
   -2.2450   -0.9841    0.0000 C   0  0  0  0  0  0  0  0  0  0  0  0
   -1.6573    0.3960    0.0000 C   0  0  0  0  0  0  0  0  0  0  0  0
   -2.5587    1.5950    0.0000 C   0  0  0  0  0  0  0  0  0  0  0  0
   -4.0478    1.4139    0.0000 N   0  0  0  0  0  0  0  0  0  0  0  0
   -3.5136    0.7873    0.0000 C   0  0  0  0  0  0  0  0  0  0  0  0
   -2.6985   -0.2968    0.0000 C   0  0  0  0  0  0  0  0  0  0  0  0
   -0.1683    0.5772    0.0000 C   0  0  0  0  0  0  0  0  0  0  0  0
    0.7331   -0.6218    0.0000 C   0  0  0  0  0  0  0  0  0  0  0  0
    0.1454   -2.0019    0.0000 C   0  0  0  0  0  0  0  0  0  0  0  0
    1.0468   -3.2008    0.0000 C   0  0  0  0  0  0  0  0  0  0  0  0
    2.5358   -3.0197    0.0000 N   0  0  0  0  0  0  0  0  0  0  0  0
    3.1235   -1.6396    0.0000 C   0  0  0  0  0  0  0  0  0  0  0  0
    4.6125   -1.4585    0.0000 C   0  0  0  0  0  0  0  0  0  0  0  0
    5.2001   -0.0784    0.0000 C   0  0  0  0  0  0  0  0  0  0  0  0
    4.2987    1.1206    0.0000 C   0  0  0  0  0  0  0  0  0  0  0  0
    2.8097    0.9395    0.0000 C   0  0  0  0  0  0  0  0  0  0  0  0
    2.2221   -0.4406    0.0000 C   0  0  0  0  0  0  0  0  0  0  0  0
    4.8864    2.5007    0.0000 O   0  0  0  0  0  0  0  0  0  0  0  0
    6.3754    2.6819    0.0000 C   0  0  0  0  0  0  0  0  0  0  0  0
    0.4193    1.9573    0.0000 O   0  0  0  0  0  0  0  0  0  0  0  0
  1  2  2  0
  2  3  1  0
  3  4  1  0
  4  5  1  0
  5  6  1  0
  6  7  1  0
  7  8  1  0
  8  9  1  0
  9 10  1  0
 10 11  1  0
 11 12  1  0
 12 13  2  0
 13 14  1  0
 14 15  2  0
 15 16  1  0
 16 17  2  0
 17 18  1  0
 18 19  2  0
 19 20  1  0
 20 21  2  0
 19 22  1  0
 22 23  1  0
 11 24  1  0
  8  3  1  0
 10  5  1  0
 21 12  1  0
 21 16  1  0
M  END
>  <ID>  (2) 
REF_QUININE

>  <NAME>  (2) 
Quinine

>  <ACTIVITY>  (2) 
Antimalarial

>  <CLASS>  (2) 
Quinoline

$$$$

     RDKit          2D

 23 26  0  0  0  0  0  0  0  0999 V2000
   -4.9756    2.1649    0.0000 C   0  0  0  0  0  0  0  0  0  0  0  0
   -3.8592    1.1630    0.0000 C   0  0  0  0  0  0  0  0  0  0  0  0
   -4.1687   -0.3048    0.0000 C   0  0  0  0  0  0  0  0  0  0  0  0
   -3.0523   -1.3066    0.0000 C   0  0  0  0  0  0  0  0  0  0  0  0
   -1.6265   -0.8408    0.0000 C   0  0  0  0  0  0  0  0  0  0  0  0
   -0.9201   -2.1641    0.0000 C   0  0  0  0  0  0  0  0  0  0  0  0
   -1.9220   -3.2804    0.0000 C   0  0  0  0  0  0  0  0  0  0  0  0
    0.4715   -2.7237    0.0000 C   0  0  0  0  0  0  0  0  0  0  0  0
    0.4216   -4.2229    0.0000 O   0  0  0  0  0  0  0  0  0  0  0  0
    1.8974   -2.2578    0.0000 O   0  0  0  0  0  0  0  0  0  0  0  0
    2.6902   -0.9845    0.0000 C   0  0  0  0  0  0  0  0  0  0  0  0
    4.1752   -0.7733    0.0000 O   0  0  0  0  0  0  0  0  0  0  0  0
    3.9641    0.7118    0.0000 C   0  0  0  0  0  0  0  0  0  0  0  0
    4.8648    1.9112    0.0000 C   0  0  0  0  0  0  0  0  0  0  0  0
    0.2519    2.3154    0.0000 C   0  0  0  0  0  0  0  0  0  0  0  0
   -1.2329    2.5282    0.0000 C   0  0  0  0  0  0  0  0  0  0  0  0
   -2.4334    1.6288    0.0000 C   0  0  0  0  0  0  0  0  0  0  0  0
   -1.3170    0.6269    0.0000 C   0  0  0  0  0  0  0  0  0  0  0  0
    0.1507    0.3175    0.0000 C   0  0  0  0  0  0  0  0  0  0  0  0
   -0.1365    1.5524    0.0000 O   0  0  0  0  0  0  0  0  0  0  0  0
    1.3626    1.5025    0.0000 O   0  0  0  0  0  0  0  0  0  0  0  0
    2.4790    0.5006    0.0000 C   0  0  0  0  0  0  0  0  0  0  0  0
    2.9152    1.9357    0.0000 C   0  0  0  0  0  0  0  0  0  0  0  0
  2  1  1  6
  2  3  1  0
  3  4  1  0
  5  4  1  6
  5  6  1  0
  6  7  1  6
  6  8  1  0
  8  9  2  0
  8 10  1  0
 11 10  1  6
 11 12  1  0
 12 13  1  0
 13 14  1  6
 13 15  1  0
 15 16  1  0
 17 16  1  6
 17 18  1  0
 18 19  1  1
 18 20  1  0
 20 21  1  0
 21 22  1  0
 22 23  1  1
 17  2  1  0
 18  5  1  0
 22 11  1  0
 22 13  1  0
M  END
>  <ID>  (3) 
REF_ARTEMISININ

>  <NAME>  (3) 
Artemisinin

>  <ACTIVITY>  (3) 
Antimalarial

>  <CLASS>  (3) 
Artemisinin

$$$$

     RDKit          2D

 22 23  0  0  0  0  0  0  0  0999 V2000
    1.8123   -2.2556    0.0000 O   0  0  0  0  0  0  0  0  0  0  0  0
    1.6008   -0.7706    0.0000 C   0  0  0  0  0  0  0  0  0  0  0  0
    2.7811    0.1551    0.0000 C   0  0  0  0  0  0  0  0  0  0  0  0
    4.1730   -0.4043    0.0000 C   0  0  0  0  0  0  0  0  0  0  0  0
    5.3533    0.5214    0.0000 C   0  0  0  0  0  0  0  0  0  0  0  0
    5.1418    2.0064    0.0000 C   0  0  0  0  0  0  0  0  0  0  0  0
    3.7499    2.5658    0.0000 C   0  0  0  0  0  0  0  0  0  0  0  0
    2.5696    1.6401    0.0000 N   0  0  0  0  0  0  0  0  0  0  0  0
    0.2090   -0.2113    0.0000 C   0  0  0  0  0  0  0  0  0  0  0  0
   -0.0025    1.2737    0.0000 C   0  0  0  0  0  0  0  0  0  0  0  0
   -1.3943    1.8331    0.0000 C   0  0  0  0  0  0  0  0  0  0  0  0
   -2.5746    0.9074    0.0000 C   0  0  0  0  0  0  0  0  0  0  0  0
   -2.3631   -0.5776    0.0000 C   0  0  0  0  0  0  0  0  0  0  0  0
   -0.9713   -1.1370    0.0000 C   0  0  0  0  0  0  0  0  0  0  0  0
   -0.7598   -2.6220    0.0000 C   0  0  0  0  0  0  0  0  0  0  0  0
   -0.5483   -4.1070    0.0000 F   0  0  0  0  0  0  0  0  0  0  0  0
   -2.2448   -2.8335    0.0000 F   0  0  0  0  0  0  0  0  0  0  0  0
    0.7252   -2.4105    0.0000 F   0  0  0  0  0  0  0  0  0  0  0  0
   -3.9664    1.4667    0.0000 C   0  0  0  0  0  0  0  0  0  0  0  0
   -5.3582    2.0261    0.0000 F   0  0  0  0  0  0  0  0  0  0  0  0
   -3.4071    2.8586    0.0000 F   0  0  0  0  0  0  0  0  0  0  0  0
   -4.5258    0.0749    0.0000 F   0  0  0  0  0  0  0  0  0  0  0  0
  1  2  1  0
  2  3  1  0
  3  4  1  0
  4  5  1  0
  5  6  1  0
  6  7  1  0
  7  8  1  0
  2  9  1  0
  9 10  2  0
 10 11  1  0
 11 12  2  0
 12 13  1  0
 13 14  2  0
 14 15  1  0
 15 16  1  0
 15 17  1  0
 15 18  1  0
 12 19  1  0
 19 20  1  0
 19 21  1  0
 19 22  1  0
  8  3  1  0
 14  9  1  0
M  END
>  <ID>  (4) 
REF_MEFLOQUINE

>  <NAME>  (4) 
Mefloquine

>  <ACTIVITY>  (4) 
Antimalarial

>  <CLASS>  (4) 
Quinoline

$$$$

     RDKit          2D

 19 20  0  0  0  0  0  0  0  0999 V2000
    4.2399   -3.1049    0.0000 C   0  0  0  0  0  0  0  0  0  0  0  0
    4.7659   -1.7001    0.0000 O   0  0  0  0  0  0  0  0  0  0  0  0
    3.8123   -0.5422    0.0000 C   0  0  0  0  0  0  0  0  0  0  0  0
    2.3327   -0.7891    0.0000 C   0  0  0  0  0  0  0  0  0  0  0  0
    1.3792    0.3688    0.0000 C   0  0  0  0  0  0  0  0  0  0  0  0
    1.9051    1.7735    0.0000 C   0  0  0  0  0  0  0  0  0  0  0  0
    3.3847    2.0204    0.0000 C   0  0  0  0  0  0  0  0  0  0  0  0
    4.3383    0.8625    0.0000 C   0  0  0  0  0  0  0  0  0  0  0  0
    0.9515    2.9314    0.0000 N   0  0  0  0  0  0  0  0  0  0  0  0
   -0.5280    2.6845    0.0000 C   0  0  0  0  0  0  0  0  0  0  0  0
   -1.0540    1.2798    0.0000 C   0  0  0  0  0  0  0  0  0  0  0  0
   -0.1004    0.1219    0.0000 C   0  0  0  0  0  0  0  0  0  0  0  0
   -0.6263   -1.2829    0.0000 N   0  0  0  0  0  0  0  0  0  0  0  0
   -2.1059   -1.5298    0.0000 C   0  0  0  0  0  0  0  0  0  0  0  0
   -2.6318   -2.9345    0.0000 C   0  0  0  0  0  0  0  0  0  0  0  0
   -3.0595   -0.3719    0.0000 C   0  0  0  0  0  0  0  0  0  0  0  0
   -4.5390   -0.6188    0.0000 C   0  0  0  0  0  0  0  0  0  0  0  0
   -5.4926    0.5391    0.0000 C   0  0  0  0  0  0  0  0  0  0  0  0
   -6.9721    0.2922    0.0000 N   0  0  0  0  0  0  0  0  0  0  0  0
  1  2  1  0
  2  3  1  0
  3  4  2  0
  4  5  1  0
  5  6  2  0
  6  7  1  0
  7  8  2  0
  6  9  1  0
  9 10  2  0
 10 11  1  0
 11 12  2  0
 12 13  1  0
 13 14  1  0
 14 15  1  0
 14 16  1  0
 16 17  1  0
 17 18  1  0
 18 19  1  0
  8  3  1  0
 12  5  1  0
M  END
>  <ID>  (5) 
REF_PRIMAQUINE

>  <NAME>  (5) 
Primaquine

>  <ACTIVITY>  (5) 
Antimalarial

>  <CLASS>  (5) 
Quinoline

$$$$

     RDKit          2D

 32 34  0  0  0  0  0  0  0  0999 V2000
   -4.3203   -3.0094    0.0000 C   0  0  0  0  0  0  0  0  0  0  0  0
   -2.8496   -3.3048    0.0000 N   0  0  0  0  0  0  0  0  0  0  0  0
   -2.3702   -4.7262    0.0000 C   0  0  0  0  0  0  0  0  0  0  0  0
   -1.8585   -2.1790    0.0000 C   0  0  0  0  0  0  0  0  0  0  0  0
   -0.4990   -2.8128    0.0000 C   0  0  0  0  0  0  0  0  0  0  0  0
   -0.7241   -4.2959    0.0000 O   0  0  0  0  0  0  0  0  0  0  0  0
    0.9874   -2.6111    0.0000 C   0  0  0  0  0  0  0  0  0  0  0  0
    1.5998   -3.9804    0.0000 O   0  0  0  0  0  0  0  0  0  0  0  0
    2.1287   -1.6377    0.0000 C   0  0  0  0  0  0  0  0  0  0  0  0
    2.5627   -0.2019    0.0000 C   0  0  0  0  0  0  0  0  0  0  0  0
    4.0626   -0.2137    0.0000 O   0  0  0  0  0  0  0  0  0  0  0  0
    2.1514    1.2406    0.0000 C   0  0  0  0  0  0  0  0  0  0  0  0
    3.5727    1.7201    0.0000 C   0  0  0  0  0  0  0  0  0  0  0  0
    4.6986    0.7289    0.0000 O   0  0  0  0  0  0  0  0  0  0  0  0
    3.8682    3.1907    0.0000 C   0  0  0  0  0  0  0  0  0  0  0  0
    2.7423    4.1819    0.0000 C   0  0  0  0  0  0  0  0  0  0  0  0
    1.3210    3.7024    0.0000 C   0  0  0  0  0  0  0  0  0  0  0  0
    1.0256    2.2318    0.0000 C   0  0  0  0  0  0  0  0  0  0  0  0
   -0.4574    2.4570    0.0000 C   0  0  0  0  0  0  0  0  0  0  0  0
   -0.6592    3.9434    0.0000 O   0  0  0  0  0  0  0  0  0  0  0  0
   -1.8268    1.8446    0.0000 C   0  0  0  0  0  0  0  0  0  0  0  0
   -2.6476    0.5892    0.0000 C   0  0  0  0  0  0  0  0  0  0  0  0
   -4.1453    0.6724    0.0000 C   0  0  0  0  0  0  0  0  0  0  0  0
   -4.8221    2.0110    0.0000 C   0  0  0  0  0  0  0  0  0  0  0  0
   -4.0013    3.2664    0.0000 C   0  0  0  0  0  0  0  0  0  0  0  0
   -2.5036    3.1833    0.0000 C   0  0  0  0  0  0  0  0  0  0  0  0
   -1.6827    4.4387    0.0000 O   0  0  0  0  0  0  0  0  0  0  0  0
   -2.6594   -0.9108    0.0000 C   0  0  0  0  0  0  0  0  0  0  0  0
   -4.1020   -1.3220    0.0000 O   0  0  0  0  0  0  0  0  0  0  0  0
    3.3842   -2.4586    0.0000 N   0  0  0  0  0  0  0  0  0  0  0  0
    3.3010   -3.9563    0.0000 C   0  0  0  0  0  0  0  0  0  0  0  0
    4.7228   -1.7818    0.0000 C   0  0  0  0  0  0  0  0  0  0  0  0
  1  2  1  0
  2  3  1  0
  2  4  1  0
  4  5  1  0
  5  6  1  0
  5  7  1  0
  7  8  1  0
  7  9  1  0
  9 10  1  0
 10 11  2  0
 10 12  1  0
 12 13  2  0
 13 14  1  0
 13 15  1  0
 15 16  2  0
 16 17  1  0
 17 18  2  0
 18 19  1  0
 19 20  2  0
 19 21  1  0
 21 22  2  0
 22 23  1  0
 23 24  2  0
 24 25  1  0
 25 26  2  0
 26 27  1  0
 22 28  1  0
 28 29  2  0
  9 30  1  0
 30 31  1  0
 30 32  1  0
 28  4  1  0
 18 12  1  0
 26 21  1  0
M  END
>  <ID>  (6) 
REF_DOXYCYCLINE

>  <NAME>  (6) 
Doxycycline

>  <ACTIVITY>  (6) 
Antimalarial

>  <CLASS>  (6) 
Tetracycline

$$$$

     RDKit          2D

 24 26  0  0  0  0  0  0  0  0999 V2000
    3.2909    2.9663    0.0000 C   0  0  0  0  0  0  0  0  0  0  0  0
    4.0367    1.6649    0.0000 C   0  0  0  0  0  0  0  0  0  0  0  0
    5.5366    1.6600    0.0000 C   0  0  0  0  0  0  0  0  0  0  0  0
    3.2825    0.3683    0.0000 C   0  0  0  0  0  0  0  0  0  0  0  0
    1.7825    0.3731    0.0000 C   0  0  0  0  0  0  0  0  0  0  0  0
    1.0283   -0.9235    0.0000 C   0  0  0  0  0  0  0  0  0  0  0  0
    1.7741   -2.2249    0.0000 C   0  0  0  0  0  0  0  0  0  0  0  0
    3.2741   -2.2298    0.0000 C   0  0  0  0  0  0  0  0  0  0  0  0
    4.0283   -0.9332    0.0000 C   0  0  0  0  0  0  0  0  0  0  0  0
    1.0199   -3.5215    0.0000 Cl  0  0  0  0  0  0  0  0  0  0  0  0
   -0.4717   -0.9186    0.0000 C   0  0  0  0  0  0  0  0  0  0  0  0
   -1.2175    0.3828    0.0000 C   0  0  0  0  0  0  0  0  0  0  0  0
   -0.4633    1.6794    0.0000 C   0  0  0  0  0  0  0  0  0  0  0  0
    1.0367    1.6746    0.0000 O   0  0  0  0  0  0  0  0  0  0  0  0
   -1.2091    2.9809    0.0000 C   0  0  0  0  0  0  0  0  0  0  0  0
   -2.7091    2.9857    0.0000 C   0  0  0  0  0  0  0  0  0  0  0  0
   -3.4633    1.6891    0.0000 C   0  0  0  0  0  0  0  0  0  0  0  0
   -4.9633    1.6940    0.0000 O   0  0  0  0  0  0  0  0  0  0  0  0
   -2.7175    0.3877    0.0000 C   0  0  0  0  0  0  0  0  0  0  0  0
   -3.4717   -0.9089    0.0000 C   0  0  0  0  0  0  0  0  0  0  0  0
   -2.7259   -2.2104    0.0000 C   0  0  0  0  0  0  0  0  0  0  0  0
   -1.2259   -2.2152    0.0000 C   0  0  0  0  0  0  0  0  0  0  0  0
   -0.4801   -3.5167    0.0000 O   0  0  0  0  0  0  0  0  0  0  0  0
   -4.9717   -0.9041    0.0000 O   0  0  0  0  0  0  0  0  0  0  0  0
  1  2  1  0
  2  3  1  0
  2  4  1  0
  4  5  2  0
  5  6  1  0
  6  7  2  0
  7  8  1  0
  8  9  2  0
  7 10  1  0
  6 11  1  0
 11 12  2  0
 12 13  1  0
 13 14  2  0
 13 15  1  0
 15 16  2  0
 16 17  1  0
 17 18  2  0
 17 19  1  0
 19 20  2  0
 20 21  1  0
 21 22  2  0
 22 23  1  0
 20 24  1  0
  9  4  1  0
 22 11  1  0
 19 12  1  0
M  END
>  <ID>  (7) 
REF_ATOVAQUONE

>  <NAME>  (7) 
Atovaquone

>  <ACTIVITY>  (7) 
Antimalarial

>  <CLASS>  (7) 
Naphthoquinone

$$$$

     RDKit          2D

 15 16  0  0  0  0  0  0  0  0999 V2000
   -4.5162    1.7167    0.0000 C   0  0  0  0  0  0  0  0  0  0  0  0
   -4.3549    0.2254    0.0000 C   0  0  0  0  0  0  0  0  0  0  0  0
   -2.9828   -0.3806    0.0000 N   0  0  0  0  0  0  0  0  0  0  0  0
   -2.6664   -1.8468    0.0000 C   0  0  0  0  0  0  0  0  0  0  0  0
   -1.1742   -1.9991    0.0000 N   0  0  0  0  0  0  0  0  0  0  0  0
   -0.5682   -0.6269    0.0000 C   0  0  0  0  0  0  0  0  0  0  0  0
   -1.6860    0.3734    0.0000 C   0  0  0  0  0  0  0  0  0  0  0  0
   -1.5337    1.8656    0.0000 N   0  0  0  0  0  0  0  0  0  0  0  0
    0.8980   -0.3106    0.0000 C   0  0  0  0  0  0  0  0  0  0  0  0
    1.9051   -1.4223    0.0000 C   0  0  0  0  0  0  0  0  0  0  0  0
    3.3714   -1.1060    0.0000 C   0  0  0  0  0  0  0  0  0  0  0  0
    3.8306    0.3220    0.0000 C   0  0  0  0  0  0  0  0  0  0  0  0
    2.8235    1.4337    0.0000 C   0  0  0  0  0  0  0  0  0  0  0  0
    1.3572    1.1174    0.0000 C   0  0  0  0  0  0  0  0  0  0  0  0
    5.2968    0.6383    0.0000 Cl  0  0  0  0  0  0  0  0  0  0  0  0
  1  2  1  0
  2  3  1  0
  3  4  1  0
  4  5  2  0
  5  6  1  0
  6  7  2  0
  7  8  1  0
  6  9  1  0
  9 10  2  0
 10 11  1  0
 11 12  2  0
 12 13  1  0
 13 14  2  0
 12 15  1  0
  7  3  1  0
 14  9  1  0
M  END
>  <ID>  (8) 
REF_PYRIMETHAMINE

>  <NAME>  (8) 
Pyrimethamine

>  <ACTIVITY>  (8) 
Antimalarial

>  <CLASS>  (8) 
Pyrimethamine

$$$$
