
     RDKit          2D

 48 49  0  0  0  0  0  0  0  0999 V2000
    4.4730    3.2773    0.0000 C   0  0  0  0  0  0  0  0  0  0  0  0
    4.3312    1.7841    0.0000 C   0  0  0  0  0  0  0  0  0  0  0  0
    4.1893    0.2908    0.0000 N   0  0  0  0  0  0  0  0  0  0  0  0
    5.4116   -0.5787    0.0000 C   0  0  0  0  0  0  0  0  0  0  0  0
    6.6339   -1.4482    0.0000 C   0  0  0  0  0  0  0  0  0  0  0  0
    2.8252   -0.3330    0.0000 C   0  0  0  0  0  0  0  0  0  0  0  0
    1.4611   -0.9568    0.0000 C   0  0  0  0  0  0  0  0  0  0  0  0
    0.0969   -1.5806    0.0000 C   0  0  0  0  0  0  0  0  0  0  0  0
   -1.2672   -2.2044    0.0000 C   0  0  0  0  0  0  0  0  0  0  0  0
   -2.6314   -2.8282    0.0000 C   0  0  0  0  0  0  0  0  0  0  0  0
   -1.8910   -0.8403    0.0000 N   0  0  0  0  0  0  0  0  0  0  0  0
   -3.3843   -0.6984    0.0000 C   0  0  0  0  0  0  0  0  0  0  0  0
   -4.0081    0.6657    0.0000 C   0  0  0  0  0  0  0  0  0  0  0  0
   -3.1386    1.8880    0.0000 C   0  0  0  0  0  0  0  0  0  0  0  0
   -3.7624    3.2521    0.0000 C   0  0  0  0  0  0  0  0  0  0  0  0
   -5.2557    3.3940    0.0000 C   0  0  0  0  0  0  0  0  0  0  0  0
   -6.1252    2.1717    0.0000 C   0  0  0  0  0  0  0  0  0  0  0  0
   -5.5014    0.8076    0.0000 C   0  0  0  0  0  0  0  0  0  0  0  0
   -6.3709   -0.4147    0.0000 N   0  0  0  0  0  0  0  0  0  0  0  0
   -5.7471   -1.7789    0.0000 C   0  0  0  0  0  0  0  0  0  0  0  0
   -4.2538   -1.9207    0.0000 C   0  0  0  0  0  0  0  0  0  0  0  0
   -5.8795    4.7581    0.0000 Cl  0  0  0  0  0  0  0  0  0  0  0  0
    4.6149    4.7706    0.0000 H   0  0  0  0  0  0  0  0  0  0  0  0
    2.9797    3.4192    0.0000 H   0  0  0  0  0  0  0  0  0  0  0  0
    5.9663    3.1355    0.0000 H   0  0  0  0  0  0  0  0  0  0  0  0
    2.8379    1.9259    0.0000 H   0  0  0  0  0  0  0  0  0  0  0  0
    5.8245    1.6422    0.0000 H   0  0  0  0  0  0  0  0  0  0  0  0
    4.5422   -1.8010    0.0000 H   0  0  0  0  0  0  0  0  0  0  0  0
    6.2811    0.6436    0.0000 H   0  0  0  0  0  0  0  0  0  0  0  0
    7.8562   -2.3176    0.0000 H   0  0  0  0  0  0  0  0  0  0  0  0
    7.5034   -0.2259    0.0000 H   0  0  0  0  0  0  0  0  0  0  0  0
    5.7645   -2.6705    0.0000 H   0  0  0  0  0  0  0  0  0  0  0  0
    2.2014    1.0311    0.0000 H   0  0  0  0  0  0  0  0  0  0  0  0
    3.4490   -1.6971    0.0000 H   0  0  0  0  0  0  0  0  0  0  0  0
    2.0849   -2.3209    0.0000 H   0  0  0  0  0  0  0  0  0  0  0  0
    0.8373    0.4073    0.0000 H   0  0  0  0  0  0  0  0  0  0  0  0
   -0.3559   -0.1506    0.0000 H   0  0  0  0  0  0  0  0  0  0  0  0
    0.7207   -2.9447    0.0000 H   0  0  0  0  0  0  0  0  0  0  0  0
   -0.6434   -3.5685    0.0000 H   0  0  0  0  0  0  0  0  0  0  0  0
   -3.3105   -3.2456    0.0000 H   0  0  0  0  0  0  0  0  0  0  0  0
   -2.0076   -4.1923    0.0000 H   0  0  0  0  0  0  0  0  0  0  0  0
   -3.3890   -1.8784    0.0000 H   0  0  0  0  0  0  0  0  0  0  0  0
   -1.1770    0.4789    0.0000 H   0  0  0  0  0  0  0  0  0  0  0  0
   -1.6453    1.7462    0.0000 H   0  0  0  0  0  0  0  0  0  0  0  0
   -2.8929    4.4744    0.0000 H   0  0  0  0  0  0  0  0  0  0  0  0
   -7.6185    2.3135    0.0000 H   0  0  0  0  0  0  0  0  0  0  0  0
   -6.6165   -3.0012    0.0000 H   0  0  0  0  0  0  0  0  0  0  0  0
   -4.0131   -2.6807    0.0000 H   0  0  0  0  0  0  0  0  0  0  0  0
  1  2  1  0
  2  3  1  0
  3  4  1  0
  4  5  1  0
  3  6  1  0
  6  7  1  0
  7  8  1  0
  8  9  1  0
  9 10  1  0
  9 11  1  0
 11 12  1  0
 12 13  2  0
 13 14  1  0
 14 15  2  0
 15 16  1  0
 16 17  2  0
 17 18  1  0
 18 19  2  0
 19 20  1  0
 20 21  2  0
 16 22  1  0
 21 12  1  0
 18 13  1  0
  1 23  1  0
  1 24  1  0
  1 25  1  0
  2 26  1  0
  2 27  1  0
  4 28  1  0
  4 29  1  0
  5 30  1  0
  5 31  1  0
  5 32  1  0
  6 33  1  0
  6 34  1  0
  7 35  1  0
  7 36  1  0
  8 37  1  0
  8 38  1  0
  9 39  1  0
 10 40  1  0
 10 41  1  0
 10 42  1  0
 11 43  1  0
 14 44  1  0
 15 45  1  0
 17 46  1  0
 20 47  1  0
 21 48  1  0
M  END
>  <ID>  (1) 
COMPOUND_001

>  <NAME>  (1) 
Chloroquine

>  <ACTIVITY>  (1) 
Antimalarial

>  <SMILES>  (1) 
CCN(CC)CCCC(C)NC1=C2C=CC(=CC2=NC=C1)Cl

$$$$

     RDKit          2D

 37 39  0  0  0  0  0  0  0  0999 V2000
   -6.3464    0.6378    0.0000 C   0  0  0  0  0  0  0  0  0  0  0  0
   -5.3171   -0.4532    0.0000 O   0  0  0  0  0  0  0  0  0  0  0  0
   -3.8575   -0.1073    0.0000 C   0  0  0  0  0  0  0  0  0  0  0  0
   -3.4273    1.3297    0.0000 C   0  0  0  0  0  0  0  0  0  0  0  0
   -1.9677    1.6756    0.0000 C   0  0  0  0  0  0  0  0  0  0  0  0
   -0.9384    0.5845    0.0000 C   0  0  0  0  0  0  0  0  0  0  0  0
   -1.3686   -0.8525    0.0000 C   0  0  0  0  0  0  0  0  0  0  0  0
   -2.8282   -1.1984    0.0000 C   0  0  0  0  0  0  0  0  0  0  0  0
    0.5212    0.9304    0.0000 C   0  0  0  0  0  0  0  0  0  0  0  0
    1.9808    1.2763    0.0000 C   0  0  0  0  0  0  0  0  0  0  0  0
    3.0101    0.1852    0.0000 C   0  0  0  0  0  0  0  0  0  0  0  0
    4.4697    0.5311    0.0000 C   0  0  0  0  0  0  0  0  0  0  0  0
    4.8999    1.9681    0.0000 C   0  0  0  0  0  0  0  0  0  0  0  0
    3.8706    3.0592    0.0000 C   0  0  0  0  0  0  0  0  0  0  0  0
    2.4110    2.7133    0.0000 N   0  0  0  0  0  0  0  0  0  0  0  0
    0.8671   -0.5292    0.0000 C   0  0  0  0  0  0  0  0  0  0  0  0
    2.3041   -0.9594    0.0000 C   0  0  0  0  0  0  0  0  0  0  0  0
    2.6500   -2.4190    0.0000 C   0  0  0  0  0  0  0  0  0  0  0  0
    1.5589   -3.4483    0.0000 C   0  0  0  0  0  0  0  0  0  0  0  0
    0.1219   -3.0181    0.0000 C   0  0  0  0  0  0  0  0  0  0  0  0
   -0.2240   -1.5585    0.0000 N   0  0  0  0  0  0  0  0  0  0  0  0
   -7.3758    1.7289    0.0000 H   0  0  0  0  0  0  0  0  0  0  0  0
   -7.4375   -0.3915    0.0000 H   0  0  0  0  0  0  0  0  0  0  0  0
   -5.2554    1.6672    0.0000 H   0  0  0  0  0  0  0  0  0  0  0  0
   -4.4567    2.4207    0.0000 H   0  0  0  0  0  0  0  0  0  0  0  0
   -1.5375    3.1125    0.0000 H   0  0  0  0  0  0  0  0  0  0  0  0
   -0.9781   -1.5475    0.0000 H   0  0  0  0  0  0  0  0  0  0  0  0
   -3.2584   -2.6354    0.0000 H   0  0  0  0  0  0  0  0  0  0  0  0
    0.1753    2.3900    0.0000 H   0  0  0  0  0  0  0  0  0  0  0  0
    2.9404   -1.3132    0.0000 H   0  0  0  0  0  0  0  0  0  0  0  0
    5.4990   -0.5599    0.0000 H   0  0  0  0  0  0  0  0  0  0  0  0
    6.3595    2.3140    0.0000 H   0  0  0  0  0  0  0  0  0  0  0  0
    4.3008    4.4962    0.0000 H   0  0  0  0  0  0  0  0  0  0  0  0
    3.6118   -0.2247    0.0000 H   0  0  0  0  0  0  0  0  0  0  0  0
    4.0870   -2.8492    0.0000 H   0  0  0  0  0  0  0  0  0  0  0  0
    1.9048   -4.9079    0.0000 H   0  0  0  0  0  0  0  0  0  0  0  0
   -0.9691   -4.0475    0.0000 H   0  0  0  0  0  0  0  0  0  0  0  0
  1  2  1  0
  2  3  1  0
  3  4  2  0
  4  5  1  0
  5  6  2  0
  6  7  1  0
  7  8  2  0
  6  9  1  0
  9 10  1  0
 10 11  2  0
 11 12  1  0
 12 13  2  0
 13 14  1  0
 14 15  2  0
  9 16  1  0
 16 17  2  0
 17 18  1  0
 18 19  2  0
 19 20  1  0
 20 21  2  0
  8  3  1  0
 15 10  1  0
 21 16  1  0
  1 22  1  0
  1 23  1  0
  1 24  1  0
  4 25  1  0
  5 26  1  0
  7 27  1  0
  8 28  1  0
  9 29  1  0
 11 30  1  0
 12 31  1  0
 13 32  1  0
 14 33  1  0
 17 34  1  0
 18 35  1  0
 19 36  1  0
 20 37  1  0
M  END
>  <ID>  (2) 
COMPOUND_002

>  <NAME>  (2) 
Mefloquine_analog

>  <ACTIVITY>  (2) 
Antimalarial

>  <SMILES>  (2) 
COC1=CC=C(C=C1)C(C2=CC=CC=N2)C3=CC=CC=N3

$$$$

     RDKit          2D

 23 24  0  0  0  0  0  0  0  0999 V2000
    3.6984   -0.9385    0.0000 C   0  0  0  0  0  0  0  0  0  0  0  0
    2.2392   -0.5911    0.0000 C   0  0  0  0  0  0  0  0  0  0  0  0
    1.2087   -1.6812    0.0000 N   0  0  0  0  0  0  0  0  0  0  0  0
   -0.2505   -1.3338    0.0000 C   0  0  0  0  0  0  0  0  0  0  0  0
   -1.2809   -2.4238    0.0000 C   0  0  0  0  0  0  0  0  0  0  0  0
   -2.7402   -2.0764    0.0000 C   0  0  0  0  0  0  0  0  0  0  0  0
   -3.1689   -0.6390    0.0000 C   0  0  0  0  0  0  0  0  0  0  0  0
   -2.1385    0.4510    0.0000 C   0  0  0  0  0  0  0  0  0  0  0  0
   -0.6792    0.1036    0.0000 C   0  0  0  0  0  0  0  0  0  0  0  0
    0.3512    1.1937    0.0000 C   0  0  0  0  0  0  0  0  0  0  0  0
    1.8104    0.8463    0.0000 C   0  0  0  0  0  0  0  0  0  0  0  0
   -0.0776    2.6311    0.0000 C   0  0  0  0  0  0  0  0  0  0  0  0
    0.9529    3.7211    0.0000 O   0  0  0  0  0  0  0  0  0  0  0  0
   -1.5368    2.9785    0.0000 O   0  0  0  0  0  0  0  0  0  0  0  0
    5.1576   -1.2859    0.0000 H   0  0  0  0  0  0  0  0  0  0  0  0
    3.3510   -2.3977    0.0000 H   0  0  0  0  0  0  0  0  0  0  0  0
    4.0458    0.5207    0.0000 H   0  0  0  0  0  0  0  0  0  0  0  0
   -0.8522   -3.8612    0.0000 H   0  0  0  0  0  0  0  0  0  0  0  0
   -3.7706   -3.1664    0.0000 H   0  0  0  0  0  0  0  0  0  0  0  0
   -4.6281   -0.2916    0.0000 H   0  0  0  0  0  0  0  0  0  0  0  0
   -2.5672    1.8884    0.0000 H   0  0  0  0  0  0  0  0  0  0  0  0
    2.8409    1.9363    0.0000 H   0  0  0  0  0  0  0  0  0  0  0  0
   -1.9655    4.4159    0.0000 H   0  0  0  0  0  0  0  0  0  0  0  0
  1  2  1  0
  2  3  2  0
  3  4  1  0
  4  5  2  0
  5  6  1  0
  6  7  2  0
  7  8  1  0
  8  9  2  0
  9 10  1  0
 10 11  2  0
 10 12  1  0
 12 13  2  0
 12 14  1  0
 11  2  1  0
  9  4  1  0
  1 15  1  0
  1 16  1  0
  1 17  1  0
  5 18  1  0
  6 19  1  0
  7 20  1  0
  8 21  1  0
 11 22  1  0
 14 23  1  0
M  END
>  <ID>  (3) 
COMPOUND_003

>  <NAME>  (3) 
Quinaldic_acid

>  <ACTIVITY>  (3) 
Antimalarial

>  <SMILES>  (3) 
CC1=NC2=CC=CC=C2C(=C1)C(=O)O

$$$$

     RDKit          2D

 17 18  0  0  0  0  0  0  0  0999 V2000
   -2.4683   -0.7714    0.0000 C   0  0  0  0  0  0  0  0  0  0  0  0
   -2.5871    0.7239    0.0000 C   0  0  0  0  0  0  0  0  0  0  0  0
   -1.3515    1.5744    0.0000 C   0  0  0  0  0  0  0  0  0  0  0  0
    0.0028    0.9296    0.0000 C   0  0  0  0  0  0  0  0  0  0  0  0
    0.1216   -0.5657    0.0000 C   0  0  0  0  0  0  0  0  0  0  0  0
   -1.1140   -1.4162    0.0000 C   0  0  0  0  0  0  0  0  0  0  0  0
    1.4759   -1.2105    0.0000 C   0  0  0  0  0  0  0  0  0  0  0  0
    2.7115   -0.3599    0.0000 C   0  0  0  0  0  0  0  0  0  0  0  0
    2.5927    1.1353    0.0000 C   0  0  0  0  0  0  0  0  0  0  0  0
    1.2384    1.7801    0.0000 N   0  0  0  0  0  0  0  0  0  0  0  0
   -3.7039   -1.6219    0.0000 H   0  0  0  0  0  0  0  0  0  0  0  0
   -3.9415    1.3687    0.0000 H   0  0  0  0  0  0  0  0  0  0  0  0
   -1.4703    3.0697    0.0000 H   0  0  0  0  0  0  0  0  0  0  0  0
   -0.9952   -2.9115    0.0000 H   0  0  0  0  0  0  0  0  0  0  0  0
    1.5947   -2.7057    0.0000 H   0  0  0  0  0  0  0  0  0  0  0  0
    4.0659   -1.0047    0.0000 H   0  0  0  0  0  0  0  0  0  0  0  0
    3.8283    1.9859    0.0000 H   0  0  0  0  0  0  0  0  0  0  0  0
  1  2  2  0
  2  3  1  0
  3  4  2  0
  4  5  1  0
  5  6  2  0
  5  7  1  0
  7  8  2  0
  8  9  1  0
  9 10  2  0
  6  1  1  0
 10  4  1  0
  1 11  1  0
  2 12  1  0
  3 13  1  0
  6 14  1  0
  7 15  1  0
  8 16  1  0
  9 17  1  0
M  END
>  <ID>  (4) 
COMPOUND_004

>  <NAME>  (4) 
Quinoline

>  <ACTIVITY>  (4) 
Antimalarial

>  <SMILES>  (4) 
C1=CC=C2C(=C1)C=CC=N2

$$$$

     RDKit          2D

 20 21  0  0  0  0  0  0  0  0999 V2000
   -1.9738   -1.6960    0.0000 C   0  0  0  0  0  0  0  0  0  0  0  0
   -1.3966   -0.3116    0.0000 C   0  0  0  0  0  0  0  0  0  0  0  0
   -2.3070    0.8806    0.0000 C   0  0  0  0  0  0  0  0  0  0  0  0
   -1.7297    2.2651    0.0000 C   0  0  0  0  0  0  0  0  0  0  0  0
   -0.2421    2.4574    0.0000 N   0  0  0  0  0  0  0  0  0  0  0  0
    0.6683    1.2653    0.0000 C   0  0  0  0  0  0  0  0  0  0  0  0
    2.1559    1.4576    0.0000 C   0  0  0  0  0  0  0  0  0  0  0  0
    3.0663    0.2655    0.0000 C   0  0  0  0  0  0  0  0  0  0  0  0
    2.4890   -1.1190    0.0000 C   0  0  0  0  0  0  0  0  0  0  0  0
    1.0014   -1.3114    0.0000 C   0  0  0  0  0  0  0  0  0  0  0  0
    0.0910   -0.1192    0.0000 C   0  0  0  0  0  0  0  0  0  0  0  0
   -2.5511   -3.0805    0.0000 H   0  0  0  0  0  0  0  0  0  0  0  0
   -3.3583   -1.1188    0.0000 H   0  0  0  0  0  0  0  0  0  0  0  0
   -0.5893   -2.2733    0.0000 H   0  0  0  0  0  0  0  0  0  0  0  0
   -3.7946    0.6883    0.0000 H   0  0  0  0  0  0  0  0  0  0  0  0
   -2.6401    3.4572    0.0000 H   0  0  0  0  0  0  0  0  0  0  0  0
    2.7331    2.8421    0.0000 H   0  0  0  0  0  0  0  0  0  0  0  0
    4.5539    0.4578    0.0000 H   0  0  0  0  0  0  0  0  0  0  0  0
    3.3994   -2.3112    0.0000 H   0  0  0  0  0  0  0  0  0  0  0  0
    0.4242   -2.6958    0.0000 H   0  0  0  0  0  0  0  0  0  0  0  0
  1  2  1  0
  2  3  2  0
  3  4  1  0
  4  5  2  0
  5  6  1  0
  6  7  2  0
  7  8  1  0
  8  9  2  0
  9 10  1  0
 10 11  2  0
 11  2  1  0
 11  6  1  0
  1 12  1  0
  1 13  1  0
  1 14  1  0
  3 15  1  0
  4 16  1  0
  7 17  1  0
  8 18  1  0
  9 19  1  0
 10 20  1  0
M  END
>  <ID>  (5) 
COMPOUND_005

>  <NAME>  (5) 
Methylquinoline

>  <ACTIVITY>  (5) 
Antimalarial

>  <SMILES>  (5) 
CC1=CC=NC2=CC=CC=C12

$$$$
