
     RDKit          2D

 22 23  0  0  0  0  0  0  0  0999 V2000
    7.6091    1.6171    0.0000 C   0  0  0  0  0  0  0  0  0  0  0  0
    6.1133    1.7299    0.0000 C   0  0  0  0  0  0  0  0  0  0  0  0
    5.2677    0.4909    0.0000 N   0  0  0  0  0  0  0  0  0  0  0  0
    5.9179   -0.8608    0.0000 C   0  0  0  0  0  0  0  0  0  0  0  0
    7.4137   -0.9736    0.0000 C   0  0  0  0  0  0  0  0  0  0  0  0
    3.7720    0.6037    0.0000 C   0  0  0  0  0  0  0  0  0  0  0  0
    2.9264   -0.6352    0.0000 C   0  0  0  0  0  0  0  0  0  0  0  0
    1.4307   -0.5224    0.0000 C   0  0  0  0  0  0  0  0  0  0  0  0
    0.5851   -1.7614    0.0000 C   0  0  0  0  0  0  0  0  0  0  0  0
    1.2353   -3.1131    0.0000 C   0  0  0  0  0  0  0  0  0  0  0  0
   -0.9106   -1.6486    0.0000 N   0  0  0  0  0  0  0  0  0  0  0  0
   -1.5608   -0.2968    0.0000 C   0  0  0  0  0  0  0  0  0  0  0  0
   -3.0566   -0.1840    0.0000 C   0  0  0  0  0  0  0  0  0  0  0  0
   -3.9022   -1.4229    0.0000 C   0  0  0  0  0  0  0  0  0  0  0  0
   -5.3979   -1.3101    0.0000 C   0  0  0  0  0  0  0  0  0  0  0  0
   -6.0481    0.0416    0.0000 C   0  0  0  0  0  0  0  0  0  0  0  0
   -5.2025    1.2806    0.0000 C   0  0  0  0  0  0  0  0  0  0  0  0
   -3.7068    1.1678    0.0000 C   0  0  0  0  0  0  0  0  0  0  0  0
   -2.8612    2.4067    0.0000 N   0  0  0  0  0  0  0  0  0  0  0  0
   -1.3654    2.2939    0.0000 C   0  0  0  0  0  0  0  0  0  0  0  0
   -0.7153    0.9422    0.0000 C   0  0  0  0  0  0  0  0  0  0  0  0
   -7.5438    0.1544    0.0000 Cl  0  0  0  0  0  0  0  0  0  0  0  0
  1  2  1  0
  2  3  1  0
  3  4  1  0
  4  5  1  0
  3  6  1  0
  6  7  1  0
  7  8  1  0
  8  9  1  0
  9 10  1  0
  9 11  1  0
 11 12  1  0
 12 13  2  0
 13 14  1  0
 14 15  2  0
 15 16  1  0
 16 17  2  0
 17 18  1  0
 18 19  2  0
 19 20  1  0
 20 21  2  0
 16 22  1  0
 21 12  1  0
 18 13  1  0
M  END
>  <ID>  (1) 
CHLOROQUINE

>  <NAME>  (1) 
Chloroquine

>  <ACTIVITY>  (1) 
Antimalarial

$$$$

     RDKit          2D

 24 27  0  0  0  0  0  0  0  0999 V2000
   -7.0258    1.0516    0.0000 C   0  0  0  0  0  0  0  0  0  0  0  0
   -6.1244   -0.1474    0.0000 C   0  0  0  0  0  0  0  0  0  0  0  0
   -4.6354    0.0338    0.0000 C   0  0  0  0  0  0  0  0  0  0  0  0
   -3.7340   -1.1652    0.0000 C   0  0  0  0  0  0  0  0  0  0  0  0
   -2.2450   -0.9841    0.0000 C   0  0  0  0  0  0  0  0  0  0  0  0
   -1.6573    0.3960    0.0000 C   0  0  0  0  0  0  0  0  0  0  0  0
   -2.5587    1.5950    0.0000 C   0  0  0  0  0  0  0  0  0  0  0  0
   -4.0478    1.4139    0.0000 N   0  0  0  0  0  0  0  0  0  0  0  0
   -3.5136    0.7873    0.0000 C   0  0  0  0  0  0  0  0  0  0  0  0
   -2.6985   -0.2968    0.0000 C   0  0  0  0  0  0  0  0  0  0  0  0
   -0.1683    0.5772    0.0000 C   0  0  0  0  0  0  0  0  0  0  0  0
    0.7331   -0.6218    0.0000 C   0  0  0  0  0  0  0  0  0  0  0  0
    0.1454   -2.0019    0.0000 C   0  0  0  0  0  0  0  0  0  0  0  0
    1.0468   -3.2008    0.0000 C   0  0  0  0  0  0  0  0  0  0  0  0
    2.5358   -3.0197    0.0000 N   0  0  0  0  0  0  0  0  0  0  0  0
    3.1235   -1.6396    0.0000 C   0  0  0  0  0  0  0  0  0  0  0  0
    4.6125   -1.4585    0.0000 C   0  0  0  0  0  0  0  0  0  0  0  0
    5.2001   -0.0784    0.0000 C   0  0  0  0  0  0  0  0  0  0  0  0
    4.2987    1.1206    0.0000 C   0  0  0  0  0  0  0  0  0  0  0  0
    2.8097    0.9395    0.0000 C   0  0  0  0  0  0  0  0  0  0  0  0
    2.2221   -0.4406    0.0000 C   0  0  0  0  0  0  0  0  0  0  0  0
    4.8864    2.5007    0.0000 O   0  0  0  0  0  0  0  0  0  0  0  0
    6.3754    2.6819    0.0000 C   0  0  0  0  0  0  0  0  0  0  0  0
    0.4193    1.9573    0.0000 O   0  0  0  0  0  0  0  0  0  0  0  0
  1  2  2  0
  2  3  1  0
  3  4  1  0
  4  5  1  0
  5  6  1  0
  6  7  1  0
  7  8  1  0
  8  9  1  0
  9 10  1  0
 10 11  1  0
 11 12  1  0
 12 13  2  0
 13 14  1  0
 14 15  2  0
 15 16  1  0
 16 17  2  0
 17 18  1  0
 18 19  2  0
 19 20  1  0
 20 21  2  0
 19 22  1  0
 22 23  1  0
 11 24  1  0
  8  3  1  0
 10  5  1  0
 21 12  1  0
 21 16  1  0
M  END
>  <ID>  (2) 
QUININE

>  <NAME>  (2) 
Quinine

>  <ACTIVITY>  (2) 
Antimalarial

$$$$

     RDKit          2D

 23 26  0  0  0  0  0  0  0  0999 V2000
   -4.9756    2.1649    0.0000 C   0  0  0  0  0  0  0  0  0  0  0  0
   -3.8592    1.1630    0.0000 C   0  0  0  0  0  0  0  0  0  0  0  0
   -4.1687   -0.3048    0.0000 C   0  0  0  0  0  0  0  0  0  0  0  0
   -3.0523   -1.3066    0.0000 C   0  0  0  0  0  0  0  0  0  0  0  0
   -1.6265   -0.8408    0.0000 C   0  0  0  0  0  0  0  0  0  0  0  0
   -0.9201   -2.1641    0.0000 C   0  0  0  0  0  0  0  0  0  0  0  0
   -1.9220   -3.2804    0.0000 C   0  0  0  0  0  0  0  0  0  0  0  0
    0.4715   -2.7237    0.0000 C   0  0  0  0  0  0  0  0  0  0  0  0
    0.4216   -4.2229    0.0000 O   0  0  0  0  0  0  0  0  0  0  0  0
    1.8974   -2.2578    0.0000 O   0  0  0  0  0  0  0  0  0  0  0  0
    2.6902   -0.9845    0.0000 C   0  0  0  0  0  0  0  0  0  0  0  0
    4.1752   -0.7733    0.0000 O   0  0  0  0  0  0  0  0  0  0  0  0
    3.9641    0.7118    0.0000 C   0  0  0  0  0  0  0  0  0  0  0  0
    4.8648    1.9112    0.0000 C   0  0  0  0  0  0  0  0  0  0  0  0
    0.2519    2.3154    0.0000 C   0  0  0  0  0  0  0  0  0  0  0  0
   -1.2329    2.5282    0.0000 C   0  0  0  0  0  0  0  0  0  0  0  0
   -2.4334    1.6288    0.0000 C   0  0  0  0  0  0  0  0  0  0  0  0
   -1.3170    0.6269    0.0000 C   0  0  0  0  0  0  0  0  0  0  0  0
    0.1507    0.3175    0.0000 C   0  0  0  0  0  0  0  0  0  0  0  0
   -0.1365    1.5524    0.0000 O   0  0  0  0  0  0  0  0  0  0  0  0
    1.3626    1.5025    0.0000 O   0  0  0  0  0  0  0  0  0  0  0  0
    2.4790    0.5006    0.0000 C   0  0  0  0  0  0  0  0  0  0  0  0
    2.9152    1.9357    0.0000 C   0  0  0  0  0  0  0  0  0  0  0  0
  2  1  1  6
  2  3  1  0
  3  4  1  0
  5  4  1  6
  5  6  1  0
  6  7  1  6
  6  8  1  0
  8  9  2  0
  8 10  1  0
 11 10  1  6
 11 12  1  0
 12 13  1  0
 13 14  1  6
 13 15  1  0
 15 16  1  0
 17 16  1  6
 17 18  1  0
 18 19  1  1
 18 20  1  0
 20 21  1  0
 21 22  1  0
 22 23  1  1
 17  2  1  0
 18  5  1  0
 22 11  1  0
 22 13  1  0
M  END
>  <ID>  (3) 
ARTEMISININ

>  <NAME>  (3) 
Artemisinin

>  <ACTIVITY>  (3) 
Antimalarial

$$$$
