MMV019066
     RDKit          3D

 42 44  0  0  0  0  0  0  0  0999 V2000
   -4.5196   -2.3206    0.5244 C   0  0  0  0  0  0  0  0  0  0  0  0
   -3.8856   -1.5428   -0.4517 O   0  0  0  0  0  0  0  0  0  0  0  0
   -4.0662   -0.1757   -0.4689 C   0  0  0  0  0  0  0  0  0  0  0  0
   -4.8744    0.4423    0.4765 C   0  0  0  0  0  0  0  0  0  0  0  0
   -5.0346    1.8202    0.4305 C   0  0  0  0  0  0  0  0  0  0  0  0
   -4.3903    2.5454   -0.5494 C   0  0  0  0  0  0  0  0  0  0  0  0
   -3.5789    1.9397   -1.5012 C   0  0  0  0  0  0  0  0  0  0  0  0
   -3.4224    0.5804   -1.4539 C   0  0  0  0  0  0  0  0  0  0  0  0
   -2.5730   -0.1498   -2.4333 C   0  0  0  0  0  0  0  0  0  0  0  0
   -1.3225   -0.5272   -1.8092 N   0  0  0  0  0  0  0  0  0  0  0  0
   -0.4248    0.4109   -1.2810 C   0  0  0  0  0  0  0  0  0  0  0  0
   -0.6581    1.6486   -1.3206 O   0  0  0  0  0  0  0  0  0  0  0  0
    0.8278   -0.0786   -0.6622 C   0  0  0  0  0  0  0  0  0  0  0  0
    1.7052    1.0365   -0.1363 C   0  0  0  0  0  0  0  0  0  0  0  0
    2.9181    0.5196    0.4643 N   0  0  0  0  0  0  0  0  0  0  0  0
    3.0299    0.1939    1.7570 C   0  0  0  0  0  0  0  0  0  0  0  0
    1.9800    0.3681    2.4633 O   0  0  0  0  0  0  0  0  0  0  0  0
    4.1152   -0.2839    2.3536 N   0  0  0  0  0  0  0  0  0  0  0  0
    5.2747   -0.4891    1.6319 C   0  0  0  0  0  0  0  0  0  0  0  0
    6.4450   -0.9613    2.0814 C   0  0  0  0  0  0  0  0  0  0  0  0
    7.4768   -1.0855    1.1765 C   0  0  0  0  0  0  0  0  0  0  0  0
    6.7971   -0.5172   -0.3941 S   0  0  0  0  0  0  0  0  0  0  0  0
    5.1748   -0.1607    0.3099 C   0  0  0  0  0  0  0  0  0  0  0  0
    4.0255    0.3395   -0.2961 C   0  0  0  0  0  0  0  0  0  0  0  0
    4.0572    0.6018   -1.5101 O   0  0  0  0  0  0  0  0  0  0  0  0
   -4.2034   -3.3921    0.4582 H   0  0  0  0  0  0  0  0  0  0  0  0
   -4.2375   -1.9446    1.5413 H   0  0  0  0  0  0  0  0  0  0  0  0
   -5.6305   -2.2306    0.4741 H   0  0  0  0  0  0  0  0  0  0  0  0
   -5.3658   -0.1716    1.2354 H   0  0  0  0  0  0  0  0  0  0  0  0
   -5.6720    2.2600    1.1848 H   0  0  0  0  0  0  0  0  0  0  0  0
   -4.5478    3.6127   -0.5409 H   0  0  0  0  0  0  0  0  0  0  0  0
   -3.0991    2.5383   -2.2416 H   0  0  0  0  0  0  0  0  0  0  0  0
   -3.1413   -1.0347   -2.7533 H   0  0  0  0  0  0  0  0  0  0  0  0
   -2.3300    0.5364   -3.2902 H   0  0  0  0  0  0  0  0  0  0  0  0
   -1.0858   -1.5455   -1.7533 H   0  0  0  0  0  0  0  0  0  0  0  0
    0.5636   -0.7136    0.2061 H   0  0  0  0  0  0  0  0  0  0  0  0
    1.3471   -0.7114   -1.3859 H   0  0  0  0  0  0  0  0  0  0  0  0
    1.1063    1.6438    0.5776 H   0  0  0  0  0  0  0  0  0  0  0  0
    2.0230    1.7410   -0.9355 H   0  0  0  0  0  0  0  0  0  0  0  0
    4.0615   -0.4940    3.3665 H   0  0  0  0  0  0  0  0  0  0  0  0
    6.6388   -1.2605    3.1391 H   0  0  0  0  0  0  0  0  0  0  0  0
    8.4960   -1.4400    1.3164 H   0  0  0  0  0  0  0  0  0  0  0  0
  1  2  1  0
  2  3  1  0
  3  4  2  0
  4  5  1  0
  5  6  2  0
  6  7  1  0
  7  8  2  0
  8  9  1  0
  9 10  1  0
 10 11  1  0
 11 12  2  0
 11 13  1  0
 13 14  1  0
 14 15  1  0
 15 16  1  0
 16 17  2  0
 16 18  1  0
 18 19  1  0
 19 20  1  0
 20 21  2  0
 21 22  1  0
 22 23  1  0
 23 24  1  0
 24 25  2  0
  8  3  1  0
 24 15  1  0
 23 19  2  0
  1 26  1  0
  1 27  1  0
  1 28  1  0
  4 29  1  0
  5 30  1  0
  6 31  1  0
  7 32  1  0
  9 33  1  0
  9 34  1  0
 10 35  1  0
 13 36  1  0
 13 37  1  0
 14 38  1  0
 14 39  1  0
 18 40  1  0
 20 41  1  0
 21 42  1  0
M  END
>  <Batch_No>  (1) 
C200-0001

>  <EC50_nM>  (1) 
140

>  <Set>  (1) 
Drug-like

>  <Molecular_Weight>  (1) 
359.39958

>  <ALogP>  (1) 
1.599

$$$$
MMV665941
     RDKit          3D

 60 62  0  0  0  0  0  0  0  0999 V2000
   -3.1604   -5.4953    0.0552 C   0  0  0  0  0  0  0  0  0  0  0  0
   -3.6056   -4.1003   -0.0083 N   0  0  0  0  0  0  0  0  0  0  0  0
   -4.9605   -3.7879   -0.3412 C   0  0  0  0  0  0  0  0  0  0  0  0
   -2.6584   -3.0759    0.2682 C   0  0  0  0  0  0  0  0  0  0  0  0
   -1.3490   -3.3152    0.5884 C   0  0  0  0  0  0  0  0  0  0  0  0
   -0.4346   -2.2971    0.8594 C   0  0  0  0  0  0  0  0  0  0  0  0
   -0.8422   -0.9809    0.8095 C   0  0  0  0  0  0  0  0  0  0  0  0
   -2.1588   -0.7448    0.4871 C   0  0  0  0  0  0  0  0  0  0  0  0
   -3.0666   -1.7577    0.2180 C   0  0  0  0  0  0  0  0  0  0  0  0
    0.1548    0.0608    1.1008 C   0  0  0  0  0  0  0  0  0  0  0  0
    0.3583    0.0653    2.5052 O   0  0  0  0  0  0  0  0  0  0  0  0
   -0.3232    1.3874    0.7204 C   0  0  0  0  0  0  0  0  0  0  0  0
   -1.2705    2.0159    1.5393 C   0  0  0  0  0  0  0  0  0  0  0  0
   -1.7618    3.2558    1.2432 C   0  0  0  0  0  0  0  0  0  0  0  0
   -1.3702    3.9686    0.1375 C   0  0  0  0  0  0  0  0  0  0  0  0
   -0.4276    3.3608   -0.6909 C   0  0  0  0  0  0  0  0  0  0  0  0
    0.0695    2.0997   -0.3860 C   0  0  0  0  0  0  0  0  0  0  0  0
   -1.8915    5.2459   -0.1488 N   0  0  0  0  0  0  0  0  0  0  0  0
   -1.5070    6.0375   -1.3092 C   0  0  0  0  0  0  0  0  0  0  0  0
   -2.8717    5.8143    0.7629 C   0  0  0  0  0  0  0  0  0  0  0  0
    1.4865   -0.2520    0.5166 C   0  0  0  0  0  0  0  0  0  0  0  0
    2.6587   -0.2027    1.2780 C   0  0  0  0  0  0  0  0  0  0  0  0
    3.8848   -0.4902    0.7483 C   0  0  0  0  0  0  0  0  0  0  0  0
    4.0299   -0.8459   -0.5727 C   0  0  0  0  0  0  0  0  0  0  0  0
    2.8842   -0.9053   -1.3596 C   0  0  0  0  0  0  0  0  0  0  0  0
    1.6570   -0.6114   -0.8053 C   0  0  0  0  0  0  0  0  0  0  0  0
    5.3154   -1.1392   -1.1047 N   0  0  0  0  0  0  0  0  0  0  0  0
    5.4365   -1.5108   -2.5085 C   0  0  0  0  0  0  0  0  0  0  0  0
    6.4696   -1.0661   -0.2604 C   0  0  0  0  0  0  0  0  0  0  0  0
   -2.3974   -5.6089   -0.7405 H   0  0  0  0  0  0  0  0  0  0  0  0
   -2.7821   -5.7592    1.0489 H   0  0  0  0  0  0  0  0  0  0  0  0
   -4.0076   -6.1687   -0.1898 H   0  0  0  0  0  0  0  0  0  0  0  0
   -5.5783   -4.7054   -0.1588 H   0  0  0  0  0  0  0  0  0  0  0  0
   -5.4344   -3.0041    0.2778 H   0  0  0  0  0  0  0  0  0  0  0  0
   -5.0181   -3.5917   -1.4297 H   0  0  0  0  0  0  0  0  0  0  0  0
   -1.0390   -4.3581    0.6258 H   0  0  0  0  0  0  0  0  0  0  0  0
    0.5779   -2.5596    1.1038 H   0  0  0  0  0  0  0  0  0  0  0  0
   -2.5244    0.2541    0.4327 H   0  0  0  0  0  0  0  0  0  0  0  0
   -4.0860   -1.5075   -0.0296 H   0  0  0  0  0  0  0  0  0  0  0  0
    0.6400   -0.8379    2.7587 H   0  0  0  0  0  0  0  0  0  0  0  0
   -1.6198    1.5086    2.4243 H   0  0  0  0  0  0  0  0  0  0  0  0
   -2.4999    3.7153    1.9048 H   0  0  0  0  0  0  0  0  0  0  0  0
   -0.0662    3.8729   -1.5955 H   0  0  0  0  0  0  0  0  0  0  0  0
    0.7977    1.6731   -1.0568 H   0  0  0  0  0  0  0  0  0  0  0  0
   -1.7475    7.1053   -1.1309 H   0  0  0  0  0  0  0  0  0  0  0  0
   -2.1047    5.7251   -2.1917 H   0  0  0  0  0  0  0  0  0  0  0  0
   -0.4433    5.9091   -1.5451 H   0  0  0  0  0  0  0  0  0  0  0  0
   -2.3608    5.8641    1.7626 H   0  0  0  0  0  0  0  0  0  0  0  0
   -3.2249    6.8057    0.4545 H   0  0  0  0  0  0  0  0  0  0  0  0
   -3.6909    5.0485    0.8287 H   0  0  0  0  0  0  0  0  0  0  0  0
    2.5653    0.0752    2.3180 H   0  0  0  0  0  0  0  0  0  0  0  0
    4.7681   -0.4463    1.3477 H   0  0  0  0  0  0  0  0  0  0  0  0
    2.9850   -1.1848   -2.4040 H   0  0  0  0  0  0  0  0  0  0  0  0
    0.7983   -0.6774   -1.4726 H   0  0  0  0  0  0  0  0  0  0  0  0
    4.9245   -0.7186   -3.0962 H   0  0  0  0  0  0  0  0  0  0  0  0
    6.4900   -1.5957   -2.8112 H   0  0  0  0  0  0  0  0  0  0  0  0
    4.8962   -2.4569   -2.7036 H   0  0  0  0  0  0  0  0  0  0  0  0
    7.3926   -1.1222   -0.9076 H   0  0  0  0  0  0  0  0  0  0  0  0
    6.4959   -0.0983    0.3033 H   0  0  0  0  0  0  0  0  0  0  0  0
    6.5482   -1.8892    0.4753 H   0  0  0  0  0  0  0  0  0  0  0  0
  1  2  1  0
  2  3  1  0
  2  4  1  0
  4  5  2  0
  5  6  1  0
  6  7  2  0
  7  8  1  0
  8  9  2  0
  7 10  1  0
 10 11  1  0
 10 12  1  0
 12 13  2  0
 13 14  1  0
 14 15  2  0
 15 16  1  0
 16 17  2  0
 15 18  1  0
 18 19  1  0
 18 20  1  0
 10 21  1  0
 21 22  2  0
 22 23  1  0
 23 24  2  0
 24 25  1  0
 25 26  2  0
 24 27  1  0
 27 28  1  0
 27 29  1  0
  9  4  1  0
 17 12  1  0
 26 21  1  0
  1 30  1  0
  1 31  1  0
  1 32  1  0
  3 33  1  0
  3 34  1  0
  3 35  1  0
  5 36  1  0
  6 37  1  0
  8 38  1  0
  9 39  1  0
 11 40  1  0
 13 41  1  0
 14 42  1  0
 16 43  1  0
 17 44  1  0
 19 45  1  0
 19 46  1  0
 19 47  1  0
 20 48  1  0
 20 49  1  0
 20 50  1  0
 22 51  1  0
 23 52  1  0
 25 53  1  0
 26 54  1  0
 28 55  1  0
 28 56  1  0
 28 57  1  0
 29 58  1  0
 29 59  1  0
 29 60  1  0
M  END
>  <Batch_No>  (2) 
5152606

>  <EC50_nM>  (2) 
255

>  <Set>  (2) 
Probe-like

>  <Molecular_Weight>  (2) 
389.53313

>  <ALogP>  (2) 
4.763

$$$$
MMV396680
     RDKit          3D

 48 51  0  0  0  0  0  0  0  0999 V2000
   -1.2100    1.0440   -0.7016 C   0  0  0  0  0  0  0  0  0  0  0  0
   -2.2658    0.1600   -0.6616 C   0  0  0  0  0  0  0  0  0  0  0  0
   -3.3809    0.8067   -0.1498 C   0  0  0  0  0  0  0  0  0  0  0  0
   -4.6921    0.1976    0.0318 C   0  0  0  0  0  0  0  0  0  0  0  0
   -5.7863    0.8656    0.5265 C   0  0  0  0  0  0  0  0  0  0  0  0
   -7.0253    0.2314    0.6736 C   0  0  0  0  0  0  0  0  0  0  0  0
   -7.1812   -1.0993    0.3199 C   0  0  0  0  0  0  0  0  0  0  0  0
   -8.4780   -1.8175    0.4502 C   0  0  0  0  0  0  0  0  0  0  0  0
   -6.0813   -1.7720   -0.1771 C   0  0  0  0  0  0  0  0  0  0  0  0
   -4.8822   -1.1448   -0.3151 C   0  0  0  0  0  0  0  0  0  0  0  0
   -2.9726    2.0575    0.1052 N   0  0  0  0  0  0  0  0  0  0  0  0
   -1.6812    2.2105   -0.2196 N   0  0  0  0  0  0  0  0  0  0  0  0
   -0.9034    3.2969   -0.1233 C   0  0  0  0  0  0  0  0  0  0  0  0
    0.4110    3.1854   -0.5383 C   0  0  0  0  0  0  0  0  0  0  0  0
    0.8747    2.0006   -1.0242 N   0  0  0  0  0  0  0  0  0  0  0  0
    0.1155    0.9081   -1.1272 C   0  0  0  0  0  0  0  0  0  0  0  0
    0.6145   -0.6684   -1.7525 S   0  0  0  0  0  0  0  0  0  0  0  0
    1.2586   -1.8074   -0.5510 C   0  0  0  0  0  0  0  0  0  0  0  0
    2.5827   -1.3784   -0.0566 C   0  0  0  0  0  0  0  0  0  0  0  0
    3.0940   -2.0599    0.8787 O   0  0  0  0  0  0  0  0  0  0  0  0
    3.3135   -0.2766   -0.5497 N   0  0  0  0  0  0  0  0  0  0  0  0
    4.5755    0.0264    0.0157 C   0  0  0  0  0  0  0  0  0  0  0  0
    4.7616    0.8359    1.1093 C   0  0  0  0  0  0  0  0  0  0  0  0
    3.3628    1.5498    1.8857 Cl  0  0  0  0  0  0  0  0  0  0  0  0
    6.0556    1.0539    1.5515 C   0  0  0  0  0  0  0  0  0  0  0  0
    7.1501    0.4940    0.9399 C   0  0  0  0  0  0  0  0  0  0  0  0
    6.9691   -0.3159   -0.1538 C   0  0  0  0  0  0  0  0  0  0  0  0
    8.1057   -0.9647   -0.8833 C   0  0  0  0  0  0  0  0  0  0  0  0
    8.6944   -1.9472   -0.1040 F   0  0  0  0  0  0  0  0  0  0  0  0
    9.0483   -0.0005   -1.2104 F   0  0  0  0  0  0  0  0  0  0  0  0
    7.6343   -1.5297   -2.0545 F   0  0  0  0  0  0  0  0  0  0  0  0
    5.6850   -0.5373   -0.5988 C   0  0  0  0  0  0  0  0  0  0  0  0
   -2.2134   -0.8658   -0.9811 H   0  0  0  0  0  0  0  0  0  0  0  0
   -5.6827    1.9060    0.8083 H   0  0  0  0  0  0  0  0  0  0  0  0
   -7.8919    0.7377    1.0621 H   0  0  0  0  0  0  0  0  0  0  0  0
   -8.4334   -2.7134   -0.1933 H   0  0  0  0  0  0  0  0  0  0  0  0
   -8.6867   -2.0203    1.5056 H   0  0  0  0  0  0  0  0  0  0  0  0
   -9.2699   -1.1569    0.0037 H   0  0  0  0  0  0  0  0  0  0  0  0
   -6.1559   -2.8106   -0.4642 H   0  0  0  0  0  0  0  0  0  0  0  0
   -4.0456   -1.6948   -0.7037 H   0  0  0  0  0  0  0  0  0  0  0  0
   -1.2632    4.2446    0.2581 H   0  0  0  0  0  0  0  0  0  0  0  0
    1.1081    4.0381   -0.4915 H   0  0  0  0  0  0  0  0  0  0  0  0
    0.5283   -1.9027    0.2884 H   0  0  0  0  0  0  0  0  0  0  0  0
    1.3933   -2.8266   -1.0182 H   0  0  0  0  0  0  0  0  0  0  0  0
    2.9564    0.3029   -1.3156 H   0  0  0  0  0  0  0  0  0  0  0  0
    6.1832    1.6808    2.3987 H   0  0  0  0  0  0  0  0  0  0  0  0
    8.1620    0.6632    1.2852 H   0  0  0  0  0  0  0  0  0  0  0  0
    5.5450   -1.1867   -1.4737 H   0  0  0  0  0  0  0  0  0  0  0  0
  1  2  2  0
  2  3  1  0
  3  4  1  0
  4  5  2  0
  5  6  1  0
  6  7  2  0
  7  8  1  0
  7  9  1  0
  9 10  2  0
  3 11  2  0
  1 12  1  0
 12 13  1  0
 13 14  2  0
 14 15  1  0
 15 16  2  0
 16 17  1  0
 17 18  1  0
 18 19  1  0
 19 20  2  0
 19 21  1  0
 21 22  1  0
 22 23  2  0
 23 24  1  0
 23 25  1  0
 25 26  2  0
 26 27  1  0
 27 28  1  0
 28 29  1  0
 28 30  1  0
 28 31  1  0
 22 32  1  0
 16  1  1  0
 10  4  1  0
 12 11  1  0
 32 27  2  0
  2 33  1  0
  5 34  1  0
  6 35  1  0
  8 36  1  0
  8 37  1  0
  8 38  1  0
  9 39  1  0
 10 40  1  0
 13 41  1  0
 14 42  1  0
 18 43  1  0
 18 44  1  0
 21 45  1  0
 25 46  1  0
 26 47  1  0
 32 48  1  0
M  END
>  <Batch_No>  (3) 
G420-0124

>  <EC50_nM>  (3) 
92.8

>  <Set>  (3) 
Probe-like

>  <Molecular_Weight>  (3) 
476.90184

>  <ALogP>  (3) 
5.664

$$$$
MMV666601
     RDKit          3D

 78 83  0  0  0  0  0  0  0  0999 V2000
   -7.2667   -1.2792    1.3544 C   0  0  0  0  0  0  0  0  0  0  0  0
   -6.4625   -1.7783    0.1995 C   0  0  0  0  0  0  0  0  0  0  0  0
   -5.0862   -1.7218    0.3696 O   0  0  0  0  0  0  0  0  0  0  0  0
   -4.3476   -0.6052    0.5978 C   0  0  0  0  0  0  0  0  0  0  0  0
   -4.9753    0.4948    0.6621 O   0  0  0  0  0  0  0  0  0  0  0  0
   -2.8753   -0.6491    0.7722 C   0  0  0  0  0  0  0  0  0  0  0  0
   -2.2887   -1.8123    0.6616 C   0  0  0  0  0  0  0  0  0  0  0  0
   -0.8440   -1.7711    0.8561 N   0  0  0  0  0  0  0  0  0  0  0  0
   -0.2897   -0.7027    1.0989 C   0  0  0  0  0  0  0  0  0  0  0  0
    1.5584   -0.4479    1.3795 S   0  0  0  0  0  0  0  0  0  0  0  0
    1.3393    1.3186    1.6215 C   0  0  0  0  0  0  0  0  0  0  0  0
    2.3253    2.1553    1.8784 C   0  0  0  0  0  0  0  0  0  0  0  0
    3.6753    1.6172    1.9723 C   0  0  0  0  0  0  0  0  0  0  0  0
    4.4421    1.5116    3.1143 C   0  0  0  0  0  0  0  0  0  0  0  0
    5.6339    0.9442    2.6984 C   0  0  0  0  0  0  0  0  0  0  0  0
    6.7484    0.6582    3.6414 C   0  0  0  0  0  0  0  0  0  0  0  0
    5.5777    0.7214    1.3619 N   0  0  0  0  0  0  0  0  0  0  0  0
    4.3818    1.1250    0.8784 C   0  0  0  0  0  0  0  0  0  0  0  0
    3.9265    1.0528   -0.5323 C   0  0  0  0  0  0  0  0  0  0  0  0
    6.5908    0.1591    0.5807 C   0  0  0  0  0  0  0  0  0  0  0  0
    6.2898   -0.9921   -0.1383 C   0  0  0  0  0  0  0  0  0  0  0  0
    7.2090   -1.6316   -0.9395 C   0  0  0  0  0  0  0  0  0  0  0  0
    8.4804   -1.0797   -1.0117 C   0  0  0  0  0  0  0  0  0  0  0  0
    9.3860   -1.7076   -1.7993 F   0  0  0  0  0  0  0  0  0  0  0  0
    8.8409    0.0593   -0.3235 C   0  0  0  0  0  0  0  0  0  0  0  0
    7.8731    0.6505    0.4609 C   0  0  0  0  0  0  0  0  0  0  0  0
    0.0097    1.5343    1.4811 C   0  0  0  0  0  0  0  0  0  0  0  0
   -0.4404    2.7539    1.6091 O   0  0  0  0  0  0  0  0  0  0  0  0
   -0.7939    0.5379    1.2235 N   0  0  0  0  0  0  0  0  0  0  0  0
   -2.2555    0.6371    1.0608 C   0  0  0  0  0  0  0  0  0  0  0  0
   -2.6760    1.6705    0.1170 C   0  0  0  0  0  0  0  0  0  0  0  0
   -3.2824    2.8534    0.5620 C   0  0  0  0  0  0  0  0  0  0  0  0
   -3.6909    3.8385   -0.3086 C   0  0  0  0  0  0  0  0  0  0  0  0
   -3.5267    3.7177   -1.6705 C   0  0  0  0  0  0  0  0  0  0  0  0
   -2.9320    2.5613   -2.1279 C   0  0  0  0  0  0  0  0  0  0  0  0
   -2.7551    2.4125   -3.4814 O   0  0  0  0  0  0  0  0  0  0  0  0
   -3.1570    3.3927   -4.4099 C   0  0  0  0  0  0  0  0  0  0  0  0
   -2.5193    1.5662   -1.2467 C   0  0  0  0  0  0  0  0  0  0  0  0
   -1.9334    0.4499   -1.8261 O   0  0  0  0  0  0  0  0  0  0  0  0
   -0.5204    0.4589   -2.0448 C   0  0  0  0  0  0  0  0  0  0  0  0
   -2.8304   -3.0773    0.3003 C   0  0  0  0  0  0  0  0  0  0  0  0
   -3.4907   -3.3962   -0.8644 C   0  0  0  0  0  0  0  0  0  0  0  0
   -3.9950   -4.6486   -1.1046 C   0  0  0  0  0  0  0  0  0  0  0  0
   -3.8765   -5.6724   -0.2015 C   0  0  0  0  0  0  0  0  0  0  0  0
   -3.2107   -5.3786    0.9884 C   0  0  0  0  0  0  0  0  0  0  0  0
   -2.7065   -4.1218    1.2265 C   0  0  0  0  0  0  0  0  0  0  0  0
   -7.6295   -0.2295    1.1698 H   0  0  0  0  0  0  0  0  0  0  0  0
   -8.1995   -1.8763    1.4215 H   0  0  0  0  0  0  0  0  0  0  0  0
   -6.7670   -1.3765    2.3346 H   0  0  0  0  0  0  0  0  0  0  0  0
   -6.7127   -2.8697    0.0499 H   0  0  0  0  0  0  0  0  0  0  0  0
   -6.8339   -1.2795   -0.7095 H   0  0  0  0  0  0  0  0  0  0  0  0
    2.0708    3.1930    2.0041 H   0  0  0  0  0  0  0  0  0  0  0  0
    4.1375    1.8201    4.1092 H   0  0  0  0  0  0  0  0  0  0  0  0
    7.3843   -0.1959    3.2697 H   0  0  0  0  0  0  0  0  0  0  0  0
    6.3304    0.2568    4.6074 H   0  0  0  0  0  0  0  0  0  0  0  0
    7.3284    1.5445    3.9312 H   0  0  0  0  0  0  0  0  0  0  0  0
    3.5400    0.0657   -0.8141 H   0  0  0  0  0  0  0  0  0  0  0  0
    4.7271    1.4292   -1.2324 H   0  0  0  0  0  0  0  0  0  0  0  0
    3.0870    1.7806   -0.6980 H   0  0  0  0  0  0  0  0  0  0  0  0
    5.2871   -1.4185   -0.0753 H   0  0  0  0  0  0  0  0  0  0  0  0
    6.9139   -2.5169   -1.4689 H   0  0  0  0  0  0  0  0  0  0  0  0
    9.8467    0.4283   -0.4290 H   0  0  0  0  0  0  0  0  0  0  0  0
    8.1307    1.5461    1.0114 H   0  0  0  0  0  0  0  0  0  0  0  0
   -2.5947    0.9834    2.0887 H   0  0  0  0  0  0  0  0  0  0  0  0
   -3.4393    3.0071    1.6244 H   0  0  0  0  0  0  0  0  0  0  0  0
   -4.1525    4.7276    0.1023 H   0  0  0  0  0  0  0  0  0  0  0  0
   -3.8649    4.5185   -2.3028 H   0  0  0  0  0  0  0  0  0  0  0  0
   -4.2511    3.2463   -4.5688 H   0  0  0  0  0  0  0  0  0  0  0  0
   -2.8975    4.4268   -4.1024 H   0  0  0  0  0  0  0  0  0  0  0  0
   -2.6289    3.2246   -5.3834 H   0  0  0  0  0  0  0  0  0  0  0  0
   -0.0097    1.2161   -1.4086 H   0  0  0  0  0  0  0  0  0  0  0  0
   -0.0932   -0.5402   -1.8204 H   0  0  0  0  0  0  0  0  0  0  0  0
   -0.2925    0.7480   -3.1051 H   0  0  0  0  0  0  0  0  0  0  0  0
   -3.6024   -2.6297   -1.6329 H   0  0  0  0  0  0  0  0  0  0  0  0
   -4.5058   -4.8095   -2.0589 H   0  0  0  0  0  0  0  0  0  0  0  0
   -4.2631   -6.6524   -0.3730 H   0  0  0  0  0  0  0  0  0  0  0  0
   -3.1049   -6.1740    1.7176 H   0  0  0  0  0  0  0  0  0  0  0  0
   -2.2003   -3.9732    2.1792 H   0  0  0  0  0  0  0  0  0  0  0  0
  1  2  1  0
  2  3  1  0
  3  4  1  0
  4  5  2  0
  4  6  1  0
  6  7  2  0
  7  8  1  0
  8  9  2  0
  9 10  1  0
 10 11  1  0
 11 12  2  3
 12 13  1  0
 13 14  1  0
 14 15  2  0
 15 16  1  0
 15 17  1  0
 17 18  1  0
 18 19  1  0
 17 20  1  0
 20 21  2  0
 21 22  1  0
 22 23  2  0
 23 24  1  0
 23 25  1  0
 25 26  2  0
 11 27  1  0
 27 28  2  0
 27 29  1  0
 29 30  1  0
 30 31  1  0
 31 32  2  0
 32 33  1  0
 33 34  2  0
 34 35  1  0
 35 36  1  0
 36 37  1  0
 35 38  2  0
 38 39  1  0
 39 40  1  0
  7 41  1  0
 41 42  2  0
 42 43  1  0
 43 44  2  0
 44 45  1  0
 45 46  2  0
 30  6  1  0
 29  9  1  0
 18 13  2  0
 26 20  1  0
 38 31  1  0
 46 41  1  0
  1 47  1  0
  1 48  1  0
  1 49  1  0
  2 50  1  0
  2 51  1  0
 12 52  1  0
 14 53  1  0
 16 54  1  0
 16 55  1  0
 16 56  1  0
 19 57  1  0
 19 58  1  0
 19 59  1  0
 21 60  1  0
 22 61  1  0
 25 62  1  0
 26 63  1  0
 30 64  1  0
 32 65  1  0
 33 66  1  0
 34 67  1  0
 37 68  1  0
 37 69  1  0
 37 70  1  0
 40 71  1  0
 40 72  1  0
 40 73  1  0
 42 74  1  0
 43 75  1  0
 44 76  1  0
 45 77  1  0
 46 78  1  0
M  END
>  <Batch_No>  (4) 
3184-0690

>  <EC50_nM>  (4) 
154

>  <Set>  (4) 
Probe-like

>  <Molecular_Weight>  (4) 
637.71978

>  <ALogP>  (4) 
7.027

$$$$
MMV008294
     RDKit          3D

 52 54  0  0  0  0  0  0  0  0999 V2000
   -1.5225    5.3294   -0.4209 C   0  0  0  0  0  0  0  0  0  0  0  0
   -1.4375    4.8172    1.0189 C   0  0  0  0  0  0  0  0  0  0  0  0
   -1.9357    3.4752    1.1163 O   0  0  0  0  0  0  0  0  0  0  0  0
   -1.3526    2.4400    0.3952 C   0  0  0  0  0  0  0  0  0  0  0  0
   -0.3677    2.6079   -0.3765 O   0  0  0  0  0  0  0  0  0  0  0  0
   -1.8884    1.0923    0.5223 C   0  0  0  0  0  0  0  0  0  0  0  0
   -2.9674    0.8311    1.3497 C   0  0  0  0  0  0  0  0  0  0  0  0
   -3.4612   -0.4143    1.4661 N   0  0  0  0  0  0  0  0  0  0  0  0
   -2.9338   -1.4511    0.7904 C   0  0  0  0  0  0  0  0  0  0  0  0
   -3.4737   -2.7123    0.9410 C   0  0  0  0  0  0  0  0  0  0  0  0
   -4.6336   -2.9332    1.8445 C   0  0  0  0  0  0  0  0  0  0  0  0
   -2.9157   -3.7665    0.2360 C   0  0  0  0  0  0  0  0  0  0  0  0
   -1.8334   -3.5330   -0.6005 C   0  0  0  0  0  0  0  0  0  0  0  0
   -1.2672   -4.6885   -1.3359 C   0  0  0  0  0  0  0  0  0  0  0  0
   -1.2980   -2.2519   -0.7429 C   0  0  0  0  0  0  0  0  0  0  0  0
   -1.8569   -1.1993   -0.0375 C   0  0  0  0  0  0  0  0  0  0  0  0
   -1.3078    0.0577   -0.1967 C   0  0  0  0  0  0  0  0  0  0  0  0
   -0.2170    0.2972   -1.0389 N   0  0  0  0  0  0  0  0  0  0  0  0
    1.1196    0.2154   -0.5876 C   0  0  0  0  0  0  0  0  0  0  0  0
    1.3731   -0.1120    0.7312 C   0  0  0  0  0  0  0  0  0  0  0  0
    2.6949   -0.1809    1.1304 C   0  0  0  0  0  0  0  0  0  0  0  0
    3.7487    0.0634    0.2646 C   0  0  0  0  0  0  0  0  0  0  0  0
    5.0710   -0.0096    0.6796 O   0  0  0  0  0  0  0  0  0  0  0  0
    5.4558   -0.3315    1.9894 C   0  0  0  0  0  0  0  0  0  0  0  0
    3.4909    0.3897   -1.0509 C   0  0  0  0  0  0  0  0  0  0  0  0
    4.5621    0.6305   -1.9008 O   0  0  0  0  0  0  0  0  0  0  0  0
    4.4419    0.9677   -3.2462 C   0  0  0  0  0  0  0  0  0  0  0  0
    2.1738    0.4588   -1.4498 C   0  0  0  0  0  0  0  0  0  0  0  0
   -0.5386    5.3928   -0.8921 H   0  0  0  0  0  0  0  0  0  0  0  0
   -2.2343    4.7158   -1.0162 H   0  0  0  0  0  0  0  0  0  0  0  0
   -1.9441    6.3670   -0.4257 H   0  0  0  0  0  0  0  0  0  0  0  0
   -0.3998    4.8392    1.3893 H   0  0  0  0  0  0  0  0  0  0  0  0
   -2.0971    5.4589    1.6324 H   0  0  0  0  0  0  0  0  0  0  0  0
   -3.4053    1.6629    1.9040 H   0  0  0  0  0  0  0  0  0  0  0  0
   -4.7015   -2.1365    2.6108 H   0  0  0  0  0  0  0  0  0  0  0  0
   -5.5845   -2.9907    1.2862 H   0  0  0  0  0  0  0  0  0  0  0  0
   -4.4787   -3.8793    2.4024 H   0  0  0  0  0  0  0  0  0  0  0  0
   -3.3259   -4.7728    0.3393 H   0  0  0  0  0  0  0  0  0  0  0  0
   -0.6428   -4.3207   -2.1818 H   0  0  0  0  0  0  0  0  0  0  0  0
   -2.0364   -5.3375   -1.8070 H   0  0  0  0  0  0  0  0  0  0  0  0
   -0.6199   -5.2859   -0.6478 H   0  0  0  0  0  0  0  0  0  0  0  0
   -0.4555   -2.1179   -1.4053 H   0  0  0  0  0  0  0  0  0  0  0  0
   -0.4149    0.5466   -2.0438 H   0  0  0  0  0  0  0  0  0  0  0  0
    0.5648   -0.3069    1.4251 H   0  0  0  0  0  0  0  0  0  0  0  0
    2.8730   -0.4377    2.1630 H   0  0  0  0  0  0  0  0  0  0  0  0
    6.4596    0.0802    2.2275 H   0  0  0  0  0  0  0  0  0  0  0  0
    4.7695    0.1394    2.7322 H   0  0  0  0  0  0  0  0  0  0  0  0
    5.4662   -1.4304    2.1941 H   0  0  0  0  0  0  0  0  0  0  0  0
    5.3241    1.5610   -3.5650 H   0  0  0  0  0  0  0  0  0  0  0  0
    3.4978    1.4542   -3.5315 H   0  0  0  0  0  0  0  0  0  0  0  0
    4.5290    0.0014   -3.8246 H   0  0  0  0  0  0  0  0  0  0  0  0
    1.9336    0.7073   -2.4557 H   0  0  0  0  0  0  0  0  0  0  0  0
  1  2  1  0
  2  3  1  0
  3  4  1  0
  4  5  2  0
  4  6  1  0
  6  7  2  0
  7  8  1  0
  8  9  2  0
  9 10  1  0
 10 11  1  0
 10 12  2  0
 12 13  1  0
 13 14  1  0
 13 15  2  0
 15 16  1  0
 16 17  2  0
 17 18  1  0
 18 19  1  0
 19 20  2  0
 20 21  1  0
 21 22  2  0
 22 23  1  0
 23 24  1  0
 22 25  1  0
 25 26  1  0
 26 27  1  0
 25 28  2  0
 17  6  1  0
 16  9  1  0
 28 19  1  0
  1 29  1  0
  1 30  1  0
  1 31  1  0
  2 32  1  0
  2 33  1  0
  7 34  1  0
 11 35  1  0
 11 36  1  0
 11 37  1  0
 12 38  1  0
 14 39  1  0
 14 40  1  0
 14 41  1  0
 15 42  1  0
 18 43  1  0
 20 44  1  0
 21 45  1  0
 24 46  1  0
 24 47  1  0
 24 48  1  0
 27 49  1  0
 27 50  1  0
 27 51  1  0
 28 52  1  0
M  END
>  <Batch_No>  (5) 
4358-4455

>  <EC50_nM>  (5) 
232

>  <Set>  (5) 
Probe-like

>  <Molecular_Weight>  (5) 
380.43695

>  <ALogP>  (5) 
4.71

$$$$
MMV011259
     RDKit          3D

 37 39  0  0  0  0  0  0  0  0999 V2000
    2.4648    0.6944   -0.0802 N   0  0  0  0  0  0  0  0  0  0  0  0
    2.7877    1.9920   -0.0295 N   0  0  0  0  0  0  0  0  0  0  0  0
    3.6183    0.0356   -0.0927 C   0  0  0  0  0  0  0  0  0  0  0  0
    3.6449   -1.3225   -0.1422 N   0  0  0  0  0  0  0  0  0  0  0  0
    2.4820   -2.0221   -0.1800 C   0  0  0  0  0  0  0  0  0  0  0  0
    2.5433   -3.4997   -0.2337 C   0  0  0  0  0  0  0  0  0  0  0  0
    1.3023   -1.3069   -0.1661 C   0  0  0  0  0  0  0  0  0  0  0  0
    1.2446    0.0699   -0.1155 C   0  0  0  0  0  0  0  0  0  0  0  0
    0.0704    0.8299   -0.1211 N   0  0  0  0  0  0  0  0  0  0  0  0
   -1.2467    0.3960    0.0021 C   0  0  0  0  0  0  0  0  0  0  0  0
   -2.2258    1.0549   -0.7538 C   0  0  0  0  0  0  0  0  0  0  0  0
   -3.5560    0.7172   -0.6863 C   0  0  0  0  0  0  0  0  0  0  0  0
   -4.5554    1.4559   -1.5169 C   0  0  0  0  0  0  0  0  0  0  0  0
   -3.9703   -0.2925    0.1378 C   0  0  0  0  0  0  0  0  0  0  0  0
   -3.0494   -0.9631    0.8945 C   0  0  0  0  0  0  0  0  0  0  0  0
   -3.4729   -2.0624    1.7959 C   0  0  0  0  0  0  0  0  0  0  0  0
   -1.7046   -0.6097    0.8162 C   0  0  0  0  0  0  0  0  0  0  0  0
    4.6391    0.9238   -0.0498 N   0  0  0  0  0  0  0  0  0  0  0  0
    4.1092    2.1591   -0.0100 C   0  0  0  0  0  0  0  0  0  0  0  0
    4.7868    3.4812    0.0446 C   0  0  0  0  0  0  0  0  0  0  0  0
    4.2433    4.2473    1.0812 F   0  0  0  0  0  0  0  0  0  0  0  0
    4.5856    4.1983   -1.1059 F   0  0  0  0  0  0  0  0  0  0  0  0
    6.1127    3.3115    0.3374 F   0  0  0  0  0  0  0  0  0  0  0  0
    2.5747   -3.9724    0.7696 H   0  0  0  0  0  0  0  0  0  0  0  0
    3.4520   -3.8611   -0.7714 H   0  0  0  0  0  0  0  0  0  0  0  0
    1.6854   -3.9508   -0.7670 H   0  0  0  0  0  0  0  0  0  0  0  0
    0.3934   -1.8857   -0.2121 H   0  0  0  0  0  0  0  0  0  0  0  0
    0.2033    1.8905   -0.2350 H   0  0  0  0  0  0  0  0  0  0  0  0
   -1.9129    1.8689   -1.4219 H   0  0  0  0  0  0  0  0  0  0  0  0
   -4.0435    2.0674   -2.2841 H   0  0  0  0  0  0  0  0  0  0  0  0
   -5.0562    2.2138   -0.8472 H   0  0  0  0  0  0  0  0  0  0  0  0
   -5.3387    0.7962   -1.8989 H   0  0  0  0  0  0  0  0  0  0  0  0
   -5.0266   -0.5621    0.1925 H   0  0  0  0  0  0  0  0  0  0  0  0
   -3.7807   -1.5886    2.7519 H   0  0  0  0  0  0  0  0  0  0  0  0
   -4.3358   -2.6199    1.4135 H   0  0  0  0  0  0  0  0  0  0  0  0
   -2.6322   -2.7304    2.0448 H   0  0  0  0  0  0  0  0  0  0  0  0
   -1.0359   -1.1538    1.4392 H   0  0  0  0  0  0  0  0  0  0  0  0
  1  2  1  0
  1  3  1  0
  3  4  1  0
  4  5  2  0
  5  6  1  0
  5  7  1  0
  7  8  2  0
  8  9  1  0
  9 10  1  0
 10 11  2  0
 11 12  1  0
 12 13  1  0
 12 14  2  0
 14 15  1  0
 15 16  1  0
 10 17  1  0
  3 18  2  0
 18 19  1  0
 19 20  1  0
 20 21  1  0
 20 22  1  0
 20 23  1  0
  8  1  1  0
 19  2  2  0
 17 15  2  0
  6 24  1  0
  6 25  1  0
  6 26  1  0
  7 27  1  0
  9 28  1  0
 11 29  1  0
 13 30  1  0
 13 31  1  0
 13 32  1  0
 14 33  1  0
 16 34  1  0
 16 35  1  0
 16 36  1  0
 17 37  1  0
M  END
>  <Batch_No>  (6) 
D724-0234

>  <EC50_nM>  (6) 
85.7

>  <Set>  (6) 
Drug-like

>  <Molecular_Weight>  (6) 
321.30036

>  <ALogP>  (6) 
4.628

$$$$
MMV019406
     RDKit          3D

 60 62  0  0  0  0  0  0  0  0999 V2000
   -3.3002   -3.4228   -1.5579 C   0  0  0  0  0  0  0  0  0  0  0  0
   -2.1652   -2.4282   -1.5582 C   0  0  0  0  0  0  0  0  0  0  0  0
   -1.8456   -1.9627   -0.1507 C   0  0  0  0  0  0  0  0  0  0  0  0
   -1.4573   -3.2020    0.6277 C   0  0  0  0  0  0  0  0  0  0  0  0
   -0.6841   -0.9509   -0.2089 C   0  0  0  0  0  0  0  0  0  0  0  0
   -0.7964    0.0922    0.8107 C   0  0  0  0  0  0  0  0  0  0  0  0
    0.5474    0.5580    1.2980 C   0  0  0  0  0  0  0  0  0  0  0  0
    1.4266    1.1497    0.2169 C   0  0  0  0  0  0  0  0  0  0  0  0
    2.6579    1.6462    0.6793 N   0  0  0  0  0  0  0  0  0  0  0  0
    3.6875    0.8321    1.1561 C   0  0  0  0  0  0  0  0  0  0  0  0
    4.4146   -0.0156    0.2053 C   0  0  0  0  0  0  0  0  0  0  0  0
    5.6327    0.4862   -0.2723 C   0  0  0  0  0  0  0  0  0  0  0  0
    6.3912   -0.2080   -1.1872 C   0  0  0  0  0  0  0  0  0  0  0  0
    5.9862   -1.4292   -1.6754 C   0  0  0  0  0  0  0  0  0  0  0  0
    4.7864   -1.9419   -1.2156 C   0  0  0  0  0  0  0  0  0  0  0  0
    4.0302   -1.2269   -0.2887 C   0  0  0  0  0  0  0  0  0  0  0  0
    2.8498   -1.7878    0.1341 O   0  0  0  0  0  0  0  0  0  0  0  0
   -1.5371   -0.4244    2.0597 C   0  0  0  0  0  0  0  0  0  0  0  0
   -2.8903   -0.9724    1.6802 C   0  0  0  0  0  0  0  0  0  0  0  0
   -2.9568   -1.3387    0.3452 O   0  0  0  0  0  0  0  0  0  0  0  0
   -1.5411    1.3120    0.4337 C   0  0  0  0  0  0  0  0  0  0  0  0
   -1.6871    2.3773    1.3265 C   0  0  0  0  0  0  0  0  0  0  0  0
   -2.3804    3.5167    0.9807 C   0  0  0  0  0  0  0  0  0  0  0  0
   -2.9657    3.6702   -0.2565 C   0  0  0  0  0  0  0  0  0  0  0  0
   -3.7114    4.8932   -0.6369 C   0  0  0  0  0  0  0  0  0  0  0  0
   -2.8316    2.6291   -1.1490 C   0  0  0  0  0  0  0  0  0  0  0  0
   -2.1349    1.4860   -0.7997 C   0  0  0  0  0  0  0  0  0  0  0  0
   -4.1221   -3.0035   -2.1776 H   0  0  0  0  0  0  0  0  0  0  0  0
   -2.9929   -4.4053   -1.9748 H   0  0  0  0  0  0  0  0  0  0  0  0
   -3.6024   -3.5852   -0.5132 H   0  0  0  0  0  0  0  0  0  0  0  0
   -2.3477   -1.5677   -2.2010 H   0  0  0  0  0  0  0  0  0  0  0  0
   -1.2516   -2.9547   -1.9496 H   0  0  0  0  0  0  0  0  0  0  0  0
   -0.3566   -3.2534    0.7809 H   0  0  0  0  0  0  0  0  0  0  0  0
   -1.7175   -4.1310    0.0815 H   0  0  0  0  0  0  0  0  0  0  0  0
   -1.9683   -3.2938    1.6066 H   0  0  0  0  0  0  0  0  0  0  0  0
   -0.6119   -0.6400   -1.2458 H   0  0  0  0  0  0  0  0  0  0  0  0
    0.2034   -1.5971   -0.0352 H   0  0  0  0  0  0  0  0  0  0  0  0
    0.4670    1.3409    2.0950 H   0  0  0  0  0  0  0  0  0  0  0  0
    1.1406   -0.3193    1.6967 H   0  0  0  0  0  0  0  0  0  0  0  0
    1.5548    0.4647   -0.6457 H   0  0  0  0  0  0  0  0  0  0  0  0
    0.8685    2.0368   -0.2313 H   0  0  0  0  0  0  0  0  0  0  0  0
    2.5784    2.6060    1.0236 H   0  0  0  0  0  0  0  0  0  0  0  0
    3.2855    0.1219    1.9602 H   0  0  0  0  0  0  0  0  0  0  0  0
    4.4447    1.4245    1.7735 H   0  0  0  0  0  0  0  0  0  0  0  0
    6.0118    1.4373    0.0668 H   0  0  0  0  0  0  0  0  0  0  0  0
    7.3241    0.2152   -1.5284 H   0  0  0  0  0  0  0  0  0  0  0  0
    6.6204   -1.9203   -2.3860 H   0  0  0  0  0  0  0  0  0  0  0  0
    4.4599   -2.9001   -1.5919 H   0  0  0  0  0  0  0  0  0  0  0  0
    2.7807   -2.5320    0.8289 H   0  0  0  0  0  0  0  0  0  0  0  0
   -1.7037    0.4272    2.7473 H   0  0  0  0  0  0  0  0  0  0  0  0
   -0.8954   -1.1438    2.6061 H   0  0  0  0  0  0  0  0  0  0  0  0
   -3.1487   -1.8176    2.3459 H   0  0  0  0  0  0  0  0  0  0  0  0
   -3.6885   -0.2045    1.8263 H   0  0  0  0  0  0  0  0  0  0  0  0
   -1.2666    2.3571    2.3221 H   0  0  0  0  0  0  0  0  0  0  0  0
   -2.4859    4.3458    1.6946 H   0  0  0  0  0  0  0  0  0  0  0  0
   -4.6115    4.6562   -1.2367 H   0  0  0  0  0  0  0  0  0  0  0  0
   -4.0346    5.4387    0.2710 H   0  0  0  0  0  0  0  0  0  0  0  0
   -3.0857    5.5840   -1.2308 H   0  0  0  0  0  0  0  0  0  0  0  0
   -3.2981    2.7585   -2.1265 H   0  0  0  0  0  0  0  0  0  0  0  0
   -2.0754    0.7169   -1.5511 H   0  0  0  0  0  0  0  0  0  0  0  0
  1  2  1  0
  2  3  1  0
  3  4  1  0
  3  5  1  0
  5  6  1  0
  6  7  1  0
  7  8  1  0
  8  9  1  0
  9 10  1  0
 10 11  1  0
 11 12  2  0
 12 13  1  0
 13 14  2  0
 14 15  1  0
 15 16  2  0
 16 17  1  0
  6 18  1  0
 18 19  1  0
 19 20  1  0
  6 21  1  0
 21 22  2  0
 22 23  1  0
 23 24  2  0
 24 25  1  0
 24 26  1  0
 26 27  2  0
 20  3  1  0
 16 11  1  0
 27 21  1  0
  1 28  1  0
  1 29  1  0
  1 30  1  0
  2 31  1  0
  2 32  1  0
  4 33  1  0
  4 34  1  0
  4 35  1  0
  5 36  1  0
  5 37  1  0
  7 38  1  0
  7 39  1  0
  8 40  1  0
  8 41  1  0
  9 42  1  0
 10 43  1  0
 10 44  1  0
 12 45  1  0
 13 46  1  0
 14 47  1  0
 15 48  1  0
 17 49  1  0
 18 50  1  0
 18 51  1  0
 19 52  1  0
 19 53  1  0
 22 54  1  0
 23 55  1  0
 25 56  1  0
 25 57  1  0
 25 58  1  0
 26 59  1  0
 27 60  1  0
M  END
>  <Batch_No>  (7) 
STK531013

>  <EC50_nM>  (7) 
142

>  <Set>  (7) 
Probe-like

>  <Molecular_Weight>  (7) 
367.52431

>  <ALogP>  (7) 
4.764

$$$$
MMV006278
     RDKit          3D

 31 32  0  0  0  0  0  0  0  0999 V2000
   -3.1856   -0.2310    0.9514 C   0  0  0  0  0  0  0  0  0  0  0  0
   -2.5375   -0.3550   -0.4252 C   0  0  0  0  0  0  0  0  0  0  0  0
   -1.1115   -0.0102   -0.2982 C   0  0  0  0  0  0  0  0  0  0  0  0
   -0.6853    1.3251   -0.2586 C   0  0  0  0  0  0  0  0  0  0  0  0
   -1.6350    2.4586   -0.3762 C   0  0  0  0  0  0  0  0  0  0  0  0
    0.6731    1.6131   -0.1185 C   0  0  0  0  0  0  0  0  0  0  0  0
    0.9849    2.8547   -0.0872 N   0  0  0  0  0  0  0  0  0  0  0  0
    1.5767    0.5832   -0.0220 C   0  0  0  0  0  0  0  0  0  0  0  0
    2.9222    0.8470    0.1139 C   0  0  0  0  0  0  0  0  0  0  0  0
    3.8456   -0.1845    0.2093 C   0  0  0  0  0  0  0  0  0  0  0  0
    3.4199   -1.4923    0.1685 C   0  0  0  0  0  0  0  0  0  0  0  0
    2.0675   -1.7422    0.0320 C   0  0  0  0  0  0  0  0  0  0  0  0
    1.1289   -0.7160   -0.0647 C   0  0  0  0  0  0  0  0  0  0  0  0
   -0.2012   -1.0215   -0.2008 N   0  0  0  0  0  0  0  0  0  0  0  0
   -0.5273   -2.4085   -0.2108 C   0  0  0  0  0  0  0  0  0  0  0  0
   -2.7573    0.6553    1.4434 H   0  0  0  0  0  0  0  0  0  0  0  0
   -2.8857   -1.0981    1.5870 H   0  0  0  0  0  0  0  0  0  0  0  0
   -4.2772   -0.0954    0.8834 H   0  0  0  0  0  0  0  0  0  0  0  0
   -3.0457    0.4452   -1.0276 H   0  0  0  0  0  0  0  0  0  0  0  0
   -2.7762   -1.2776   -0.9433 H   0  0  0  0  0  0  0  0  0  0  0  0
   -1.0253    3.3272   -0.7884 H   0  0  0  0  0  0  0  0  0  0  0  0
   -2.3893    2.3031   -1.1743 H   0  0  0  0  0  0  0  0  0  0  0  0
   -2.0870    2.7385    0.5845 H   0  0  0  0  0  0  0  0  0  0  0  0
    1.9542    3.1558    0.0125 H   0  0  0  0  0  0  0  0  0  0  0  0
    3.3340    1.8436    0.1537 H   0  0  0  0  0  0  0  0  0  0  0  0
    4.9143   -0.0016    0.3166 H   0  0  0  0  0  0  0  0  0  0  0  0
    4.1264   -2.3165    0.2418 H   0  0  0  0  0  0  0  0  0  0  0  0
    1.7854   -2.7885    0.0032 H   0  0  0  0  0  0  0  0  0  0  0  0
   -0.0909   -2.8469    0.7183 H   0  0  0  0  0  0  0  0  0  0  0  0
   -1.5600   -2.6747   -0.3696 H   0  0  0  0  0  0  0  0  0  0  0  0
    0.0450   -2.8900   -1.0541 H   0  0  0  0  0  0  0  0  0  0  0  0
  1  2  1  0
  2  3  1  0
  3  4  2  0
  4  5  1  0
  4  6  1  0
  6  7  2  3
  6  8  1  0
  8  9  2  0
  9 10  1  0
 10 11  2  0
 11 12  1  0
 12 13  2  0
 13 14  1  0
 14 15  1  0
 14  3  1  0
 13  8  1  0
  1 16  1  0
  1 17  1  0
  1 18  1  0
  2 19  1  0
  2 20  1  0
  5 21  1  0
  5 22  1  0
  5 23  1  0
  7 24  1  0
  9 25  1  0
 10 26  1  0
 11 27  1  0
 12 28  1  0
 15 29  1  0
 15 30  1  0
 15 31  1  0
M  END
>  <Batch_No>  (8) 
STK068962

>  <EC50_nM>  (8) 
378

>  <Set>  (8) 
Drug-like

>  <Molecular_Weight>  (8) 
200.27954

>  <ALogP>  (8) 
3.105

$$$$
MMV666688
     RDKit          3D

 59 63  0  0  0  0  0  0  0  0999 V2000
    4.3438    2.2725   -0.9577 C   0  0  0  0  0  0  0  0  0  0  0  0
    3.4432    1.1012   -0.8983 C   0  0  0  0  0  0  0  0  0  0  0  0
    2.1317    1.0445   -1.3277 C   0  0  0  0  0  0  0  0  0  0  0  0
    1.6256   -0.2084   -1.1083 C   0  0  0  0  0  0  0  0  0  0  0  0
    0.3291   -0.7996   -1.3447 C   0  0  0  0  0  0  0  0  0  0  0  0
   -0.8406   -0.3152   -1.0515 C   0  0  0  0  0  0  0  0  0  0  0  0
   -2.3915   -1.2078   -1.4312 S   0  0  0  0  0  0  0  0  0  0  0  0
   -3.3618   -0.2739   -0.2521 C   0  0  0  0  0  0  0  0  0  0  0  0
   -4.5040   -0.6691    0.2084 N   0  0  0  0  0  0  0  0  0  0  0  0
   -5.0487   -1.9270   -0.2355 C   0  0  0  0  0  0  0  0  0  0  0  0
   -6.1639   -1.9796   -1.0405 C   0  0  0  0  0  0  0  0  0  0  0  0
   -6.6079   -3.2354   -1.4143 C   0  0  0  0  0  0  0  0  0  0  0  0
   -5.9425   -4.3730   -0.9845 C   0  0  0  0  0  0  0  0  0  0  0  0
   -4.8201   -4.3156   -0.1742 C   0  0  0  0  0  0  0  0  0  0  0  0
   -4.3743   -3.0602    0.2009 C   0  0  0  0  0  0  0  0  0  0  0  0
   -2.6181    0.8953    0.0149 N   0  0  0  0  0  0  0  0  0  0  0  0
   -3.2450    2.0486    0.7005 C   0  0  0  0  0  0  0  0  0  0  0  0
   -3.2162    3.2421   -0.2257 C   0  0  0  0  0  0  0  0  0  0  0  0
   -2.5381    4.3676    0.5086 C   0  0  0  0  0  0  0  0  0  0  0  0
   -2.2462    3.8981    1.9045 C   0  0  0  0  0  0  0  0  0  0  0  0
   -2.5186    2.4208    1.9513 C   0  0  0  0  0  0  0  0  0  0  0  0
   -1.2967    0.8899   -0.3969 C   0  0  0  0  0  0  0  0  0  0  0  0
   -0.5090    1.8884   -0.2149 O   0  0  0  0  0  0  0  0  0  0  0  0
    2.6849   -0.9191   -0.5259 C   0  0  0  0  0  0  0  0  0  0  0  0
    2.6315   -2.3412   -0.1003 C   0  0  0  0  0  0  0  0  0  0  0  0
    3.7570   -0.1148   -0.4117 N   0  0  0  0  0  0  0  0  0  0  0  0
    4.9951   -0.5211    0.1382 C   0  0  0  0  0  0  0  0  0  0  0  0
    5.0146   -1.1401    1.3953 C   0  0  0  0  0  0  0  0  0  0  0  0
    6.2262   -1.5461    1.9498 C   0  0  0  0  0  0  0  0  0  0  0  0
    7.4186   -1.3508    1.2832 C   0  0  0  0  0  0  0  0  0  0  0  0
    8.9216   -1.8733    2.0106 Cl  0  0  0  0  0  0  0  0  0  0  0  0
    7.3979   -0.7331    0.0293 C   0  0  0  0  0  0  0  0  0  0  0  0
    6.1915   -0.3197   -0.5414 C   0  0  0  0  0  0  0  0  0  0  0  0
    4.6413    2.5840   -1.9560 H   0  0  0  0  0  0  0  0  0  0  0  0
    3.7320    3.1444   -0.5738 H   0  0  0  0  0  0  0  0  0  0  0  0
    5.1628    2.2171   -0.2085 H   0  0  0  0  0  0  0  0  0  0  0  0
    1.6357    1.8863   -1.7739 H   0  0  0  0  0  0  0  0  0  0  0  0
    0.3654   -1.7927   -1.8413 H   0  0  0  0  0  0  0  0  0  0  0  0
   -6.6538   -1.0753   -1.3542 H   0  0  0  0  0  0  0  0  0  0  0  0
   -7.4748   -3.3412   -2.0430 H   0  0  0  0  0  0  0  0  0  0  0  0
   -6.2850   -5.3638   -1.2732 H   0  0  0  0  0  0  0  0  0  0  0  0
   -4.2920   -5.1838    0.1687 H   0  0  0  0  0  0  0  0  0  0  0  0
   -3.4933   -2.9893    0.8378 H   0  0  0  0  0  0  0  0  0  0  0  0
   -4.2901    1.8595    0.9439 H   0  0  0  0  0  0  0  0  0  0  0  0
   -2.6211    3.0048   -1.1166 H   0  0  0  0  0  0  0  0  0  0  0  0
   -4.2431    3.5278   -0.5701 H   0  0  0  0  0  0  0  0  0  0  0  0
   -1.6376    4.7399   -0.0291 H   0  0  0  0  0  0  0  0  0  0  0  0
   -3.2562    5.2340    0.5308 H   0  0  0  0  0  0  0  0  0  0  0  0
   -2.8570    4.4828    2.6467 H   0  0  0  0  0  0  0  0  0  0  0  0
   -1.1885    4.1067    2.1196 H   0  0  0  0  0  0  0  0  0  0  0  0
   -1.5945    1.8314    2.0667 H   0  0  0  0  0  0  0  0  0  0  0  0
   -3.1133    2.2127    2.8870 H   0  0  0  0  0  0  0  0  0  0  0  0
    2.1476   -2.3964    0.8884 H   0  0  0  0  0  0  0  0  0  0  0  0
    1.9754   -2.9606   -0.7804 H   0  0  0  0  0  0  0  0  0  0  0  0
    3.5937   -2.8312   -0.0567 H   0  0  0  0  0  0  0  0  0  0  0  0
    4.1012   -1.3111    1.9496 H   0  0  0  0  0  0  0  0  0  0  0  0
    6.2391   -2.0193    2.9112 H   0  0  0  0  0  0  0  0  0  0  0  0
    8.3408   -0.5692   -0.5163 H   0  0  0  0  0  0  0  0  0  0  0  0
    6.1966    0.1576   -1.5153 H   0  0  0  0  0  0  0  0  0  0  0  0
  1  2  1  0
  2  3  2  0
  3  4  1  0
  4  5  1  0
  5  6  2  3
  6  7  1  0
  7  8  1  0
  8  9  2  3
  9 10  1  0
 10 11  2  0
 11 12  1  0
 12 13  2  0
 13 14  1  0
 14 15  2  0
  8 16  1  0
 16 17  1  0
 17 18  1  0
 18 19  1  0
 19 20  1  0
 20 21  1  0
 16 22  1  0
 22 23  2  0
  4 24  2  0
 24 25  1  0
 24 26  1  0
 26 27  1  0
 27 28  2  0
 28 29  1  0
 29 30  2  0
 30 31  1  0
 30 32  1  0
 32 33  2  0
 26  2  1  0
 22  6  1  0
 15 10  1  0
 21 17  1  0
 33 27  1  0
  1 34  1  0
  1 35  1  0
  1 36  1  0
  3 37  1  0
  5 38  1  0
 11 39  1  0
 12 40  1  0
 13 41  1  0
 14 42  1  0
 15 43  1  0
 17 44  1  0
 18 45  1  0
 18 46  1  0
 19 47  1  0
 19 48  1  0
 20 49  1  0
 20 50  1  0
 21 51  1  0
 21 52  1  0
 25 53  1  0
 25 54  1  0
 25 55  1  0
 28 56  1  0
 29 57  1  0
 32 58  1  0
 33 59  1  0
M  END
>  <Batch_No>  (9) 
STK324781

>  <EC50_nM>  (9) 
263

>  <Set>  (9) 
Probe-like

>  <Molecular_Weight>  (9) 
476.03283

>  <ALogP>  (9) 
7.219

$$$$
MMV019110
     RDKit          3D

 33 35  0  0  0  0  0  0  0  0999 V2000
    4.2296    1.4737    0.8614 C   0  0  0  0  0  0  0  0  0  0  0  0
    3.7737    0.1570    0.3036 C   0  0  0  0  0  0  0  0  0  0  0  0
    4.7044   -0.8005   -0.0204 C   0  0  0  0  0  0  0  0  0  0  0  0
    4.2656   -1.9967   -0.5287 C   0  0  0  0  0  0  0  0  0  0  0  0
    2.9401   -2.2273   -0.7071 C   0  0  0  0  0  0  0  0  0  0  0  0
    1.9457   -1.2843   -0.3931 C   0  0  0  0  0  0  0  0  0  0  0  0
    0.6050   -1.6108   -0.6110 N   0  0  0  0  0  0  0  0  0  0  0  0
   -0.5256   -0.8007   -0.3589 C   0  0  0  0  0  0  0  0  0  0  0  0
   -0.4965    0.4384    0.1405 N   0  0  0  0  0  0  0  0  0  0  0  0
   -1.5635    1.2120    0.3820 C   0  0  0  0  0  0  0  0  0  0  0  0
   -1.4621    2.5286    0.9171 N   0  0  0  0  0  0  0  0  0  0  0  0
   -2.8125    0.7066    0.0981 C   0  0  0  0  0  0  0  0  0  0  0  0
   -3.9785    1.4110    0.3053 C   0  0  0  0  0  0  0  0  0  0  0  0
   -5.2004    0.8234   -0.0098 C   0  0  0  0  0  0  0  0  0  0  0  0
   -5.2545   -0.4634   -0.5300 C   0  0  0  0  0  0  0  0  0  0  0  0
   -4.0876   -1.1721   -0.7389 C   0  0  0  0  0  0  0  0  0  0  0  0
   -2.8700   -0.5696   -0.4181 C   0  0  0  0  0  0  0  0  0  0  0  0
   -1.7710   -1.2921   -0.6369 N   0  0  0  0  0  0  0  0  0  0  0  0
    2.4196   -0.0970    0.1140 C   0  0  0  0  0  0  0  0  0  0  0  0
    3.4010    1.8186    1.5416 H   0  0  0  0  0  0  0  0  0  0  0  0
    4.3044    2.2249    0.0307 H   0  0  0  0  0  0  0  0  0  0  0  0
    5.1472    1.3784    1.4432 H   0  0  0  0  0  0  0  0  0  0  0  0
    5.7480   -0.6066    0.1250 H   0  0  0  0  0  0  0  0  0  0  0  0
    4.9934   -2.7533   -0.7852 H   0  0  0  0  0  0  0  0  0  0  0  0
    2.6593   -3.2076   -1.1186 H   0  0  0  0  0  0  0  0  0  0  0  0
    0.4047   -2.5676   -1.0080 H   0  0  0  0  0  0  0  0  0  0  0  0
   -1.6596    2.6121    1.9524 H   0  0  0  0  0  0  0  0  0  0  0  0
   -1.2137    3.3664    0.3546 H   0  0  0  0  0  0  0  0  0  0  0  0
   -3.9381    2.4128    0.7102 H   0  0  0  0  0  0  0  0  0  0  0  0
   -6.1341    1.3225    0.1301 H   0  0  0  0  0  0  0  0  0  0  0  0
   -6.1914   -0.9503   -0.7862 H   0  0  0  0  0  0  0  0  0  0  0  0
   -4.1339   -2.1815   -1.1472 H   0  0  0  0  0  0  0  0  0  0  0  0
    1.7514    0.6951    0.3885 H   0  0  0  0  0  0  0  0  0  0  0  0
  1  2  1  0
  2  3  2  0
  3  4  1  0
  4  5  2  0
  5  6  1  0
  6  7  1  0
  7  8  1  0
  8  9  2  0
  9 10  1  0
 10 11  1  0
 10 12  2  0
 12 13  1  0
 13 14  2  0
 14 15  1  0
 15 16  2  0
 16 17  1  0
 17 18  2  0
  6 19  2  0
 19  2  1  0
 18  8  1  0
 17 12  1  0
  1 20  1  0
  1 21  1  0
  1 22  1  0
  3 23  1  0
  4 24  1  0
  5 25  1  0
  7 26  1  0
 11 27  1  0
 11 28  1  0
 13 29  1  0
 14 30  1  0
 15 31  1  0
 16 32  1  0
 19 33  1  0
M  END
>  <Batch_No>  (10) 
OSSK_578009

>  <EC50_nM>  (10) 
400

>  <Set>  (10) 
Drug-like

>  <Molecular_Weight>  (10) 
250.29846

>  <ALogP>  (10) 
3.1

$$$$
MMV006427
     RDKit          3D

 48 51  0  0  0  0  0  0  0  0999 V2000
    7.9119   -0.0263   -0.6055 C   0  0  0  0  0  0  0  0  0  0  0  0
    6.9940    0.7872    0.0612 O   0  0  0  0  0  0  0  0  0  0  0  0
    5.6389    0.6277    0.1270 C   0  0  0  0  0  0  0  0  0  0  0  0
    4.9531   -0.4072   -0.4841 C   0  0  0  0  0  0  0  0  0  0  0  0
    3.5956   -0.5418   -0.4011 C   0  0  0  0  0  0  0  0  0  0  0  0
    2.8598   -1.5528   -0.9897 O   0  0  0  0  0  0  0  0  0  0  0  0
    3.5368   -2.5352   -1.7398 C   0  0  0  0  0  0  0  0  0  0  0  0
    2.8934    0.4026    0.3267 C   0  0  0  0  0  0  0  0  0  0  0  0
    3.5466    1.4517    0.9519 C   0  0  0  0  0  0  0  0  0  0  0  0
    4.9204    1.5803    0.8628 C   0  0  0  0  0  0  0  0  0  0  0  0
    5.7644    2.9097    1.6526 Cl  0  0  0  0  0  0  0  0  0  0  0  0
    1.4743    0.3435    0.4663 N   0  0  0  0  0  0  0  0  0  0  0  0
    0.9538   -0.4146    1.5815 C   0  0  0  0  0  0  0  0  0  0  0  0
    0.6348    1.0144   -0.4734 C   0  0  0  0  0  0  0  0  0  0  0  0
    1.1549    1.6556   -1.3999 O   0  0  0  0  0  0  0  0  0  0  0  0
   -0.8044    0.9120   -0.2973 C   0  0  0  0  0  0  0  0  0  0  0  0
   -1.7179    1.6732    0.3499 C   0  0  0  0  0  0  0  0  0  0  0  0
   -3.0298    1.3048    0.3321 C   0  0  0  0  0  0  0  0  0  0  0  0
   -4.1023    2.1502    1.0214 C   0  0  0  0  0  0  0  0  0  0  0  0
   -5.6418    1.4245    1.0619 S   0  0  0  0  0  0  0  0  0  0  0  0
   -6.7134    2.4311    0.6585 O   0  0  0  0  0  0  0  0  0  0  0  0
   -6.0380    1.0532    2.4905 O   0  0  0  0  0  0  0  0  0  0  0  0
   -5.7303    0.0234    0.0498 C   0  0  0  0  0  0  0  0  0  0  0  0
   -6.9270   -0.5796   -0.1404 C   0  0  0  0  0  0  0  0  0  0  0  0
   -7.0924   -1.7083   -0.8959 C   0  0  0  0  0  0  0  0  0  0  0  0
   -5.9616   -2.2393   -1.4839 C   0  0  0  0  0  0  0  0  0  0  0  0
   -4.7523   -1.6318   -1.2936 C   0  0  0  0  0  0  0  0  0  0  0  0
   -4.5899   -0.4751   -0.5189 C   0  0  0  0  0  0  0  0  0  0  0  0
   -3.3629    0.1848   -0.3365 C   0  0  0  0  0  0  0  0  0  0  0  0
   -1.7841   -0.4948   -1.0440 S   0  0  0  0  0  0  0  0  0  0  0  0
    7.8955    0.1634   -1.6975 H   0  0  0  0  0  0  0  0  0  0  0  0
    8.9226    0.2159   -0.1671 H   0  0  0  0  0  0  0  0  0  0  0  0
    7.7068   -1.1136   -0.4588 H   0  0  0  0  0  0  0  0  0  0  0  0
    5.5314   -1.1233   -1.0408 H   0  0  0  0  0  0  0  0  0  0  0  0
    4.3689   -2.1430   -2.3460 H   0  0  0  0  0  0  0  0  0  0  0  0
    2.8012   -2.9429   -2.4856 H   0  0  0  0  0  0  0  0  0  0  0  0
    3.8838   -3.3825   -1.0809 H   0  0  0  0  0  0  0  0  0  0  0  0
    3.0154    2.2105    1.5318 H   0  0  0  0  0  0  0  0  0  0  0  0
   -0.1412   -0.2939    1.6067 H   0  0  0  0  0  0  0  0  0  0  0  0
    1.1453   -1.5031    1.5082 H   0  0  0  0  0  0  0  0  0  0  0  0
    1.3295   -0.0046    2.5392 H   0  0  0  0  0  0  0  0  0  0  0  0
   -1.3487    2.5941    0.8834 H   0  0  0  0  0  0  0  0  0  0  0  0
   -4.1574    3.1076    0.4133 H   0  0  0  0  0  0  0  0  0  0  0  0
   -3.7400    2.4925    2.0218 H   0  0  0  0  0  0  0  0  0  0  0  0
   -7.8212   -0.1623    0.3230 H   0  0  0  0  0  0  0  0  0  0  0  0
   -8.0469   -2.1894   -1.0475 H   0  0  0  0  0  0  0  0  0  0  0  0
   -6.0353   -3.1463   -2.1022 H   0  0  0  0  0  0  0  0  0  0  0  0
   -3.8944   -2.1023   -1.7868 H   0  0  0  0  0  0  0  0  0  0  0  0
  1  2  1  0
  2  3  1  0
  3  4  2  0
  4  5  1  0
  5  6  1  0
  6  7  1  0
  5  8  2  0
  8  9  1  0
  9 10  2  0
 10 11  1  0
  8 12  1  0
 12 13  1  0
 12 14  1  0
 14 15  2  0
 14 16  1  0
 16 17  2  0
 17 18  1  0
 18 19  1  0
 19 20  1  0
 20 21  2  0
 20 22  2  0
 20 23  1  0
 23 24  2  0
 24 25  1  0
 25 26  2  0
 26 27  1  0
 27 28  2  0
 28 29  1  0
 29 30  1  0
 10  3  1  0
 30 16  1  0
 29 18  2  0
 28 23  1  0
  1 31  1  0
  1 32  1  0
  1 33  1  0
  4 34  1  0
  7 35  1  0
  7 36  1  0
  7 37  1  0
  9 38  1  0
 13 39  1  0
 13 40  1  0
 13 41  1  0
 17 42  1  0
 19 43  1  0
 19 44  1  0
 24 45  1  0
 25 46  1  0
 26 47  1  0
 27 48  1  0
M  END
>  <Batch_No>  (11) 
C909-0373

>  <EC50_nM>  (11) 
78.2

>  <Set>  (11) 
Drug-like

>  <Molecular_Weight>  (11) 
463.95431

>  <ALogP>  (11) 
4.494

$$$$
MMV666062
     RDKit          3D

 73 80  0  0  0  0  0  0  0  0999 V2000
    6.7145   -1.3045    3.8278 C   0  0  0  0  0  0  0  0  0  0  0  0
    5.5788   -0.9438    2.9262 C   0  0  0  0  0  0  0  0  0  0  0  0
    4.3564   -0.5784    3.4572 C   0  0  0  0  0  0  0  0  0  0  0  0
    3.2764   -0.2362    2.6406 C   0  0  0  0  0  0  0  0  0  0  0  0
    3.4089   -0.2561    1.2683 C   0  0  0  0  0  0  0  0  0  0  0  0
    4.6522   -0.6279    0.7444 C   0  0  0  0  0  0  0  0  0  0  0  0
    5.7069   -0.9625    1.5695 C   0  0  0  0  0  0  0  0  0  0  0  0
    2.3293    0.0857    0.3856 N   0  0  0  0  0  0  0  0  0  0  0  0
    2.0177    1.3979   -0.1294 C   0  0  0  0  0  0  0  0  0  0  0  0
    2.4513    2.4937    0.3059 O   0  0  0  0  0  0  0  0  0  0  0  0
    1.1121    1.2030   -1.2407 C   0  0  0  0  0  0  0  0  0  0  0  0
    0.9714   -0.2917   -1.4683 C   0  0  0  0  0  0  0  0  0  0  0  0
    1.3488   -0.8258   -0.1549 C   0  0  0  0  0  0  0  0  0  0  0  0
    0.9445   -1.8683    0.4550 O   0  0  0  0  0  0  0  0  0  0  0  0
   -0.4700   -0.5595   -1.8560 C   0  0  0  0  0  0  0  0  0  0  0  0
   -0.8357    0.8566   -2.2933 C   0  0  0  0  0  0  0  0  0  0  0  0
   -1.3310    1.2917   -3.2563 O   0  0  0  0  0  0  0  0  0  0  0  0
   -0.3317    1.5962   -1.0162 C   0  0  0  0  0  0  0  0  0  0  0  0
   -1.0096    0.7239   -0.0401 C   0  0  0  0  0  0  0  0  0  0  0  0
   -1.3582   -0.4627   -0.6405 C   0  0  0  0  0  0  0  0  0  0  0  0
   -2.3571   -1.4040   -0.1596 C   0  0  0  0  0  0  0  0  0  0  0  0
   -3.4484   -1.7973   -0.9504 C   0  0  0  0  0  0  0  0  0  0  0  0
   -4.3762   -2.7124   -0.4969 C   0  0  0  0  0  0  0  0  0  0  0  0
   -4.2574   -3.2723    0.7582 C   0  0  0  0  0  0  0  0  0  0  0  0
   -3.1954   -2.9052    1.5577 C   0  0  0  0  0  0  0  0  0  0  0  0
   -2.2657   -1.9917    1.1094 C   0  0  0  0  0  0  0  0  0  0  0  0
   -1.3917    0.9345    1.3470 C   0  0  0  0  0  0  0  0  0  0  0  0
   -2.7431    0.7930    1.6774 C   0  0  0  0  0  0  0  0  0  0  0  0
   -3.2062    0.9303    2.9628 C   0  0  0  0  0  0  0  0  0  0  0  0
   -2.3460    1.2183    3.9991 C   0  0  0  0  0  0  0  0  0  0  0  0
   -1.0132    1.3602    3.6851 C   0  0  0  0  0  0  0  0  0  0  0  0
   -0.5447    1.2203    2.3795 C   0  0  0  0  0  0  0  0  0  0  0  0
   -0.6558    2.9855   -1.0748 C   0  0  0  0  0  0  0  0  0  0  0  0
   -1.2305    3.7750   -0.1022 C   0  0  0  0  0  0  0  0  0  0  0  0
   -1.4957    5.1186   -0.2642 C   0  0  0  0  0  0  0  0  0  0  0  0
   -1.1903    5.7610   -1.4438 C   0  0  0  0  0  0  0  0  0  0  0  0
   -0.6146    4.9996   -2.4371 C   0  0  0  0  0  0  0  0  0  0  0  0
   -0.3541    3.6685   -2.2707 C   0  0  0  0  0  0  0  0  0  0  0  0
   -0.7119   -1.6038   -2.7736 C   0  0  0  0  0  0  0  0  0  0  0  0
   -1.0763   -2.9001   -2.4469 C   0  0  0  0  0  0  0  0  0  0  0  0
   -1.3342   -3.8735   -3.3884 C   0  0  0  0  0  0  0  0  0  0  0  0
   -1.2369   -3.5927   -4.7344 C   0  0  0  0  0  0  0  0  0  0  0  0
   -0.8784   -2.3247   -5.0918 C   0  0  0  0  0  0  0  0  0  0  0  0
   -0.6215   -1.3527   -4.1531 C   0  0  0  0  0  0  0  0  0  0  0  0
    6.3518   -1.9504    4.6724 H   0  0  0  0  0  0  0  0  0  0  0  0
    7.4502   -1.8522    3.2031 H   0  0  0  0  0  0  0  0  0  0  0  0
    7.2470   -0.4022    4.2074 H   0  0  0  0  0  0  0  0  0  0  0  0
    4.2503   -0.5623    4.5503 H   0  0  0  0  0  0  0  0  0  0  0  0
    2.3210    0.0485    3.0956 H   0  0  0  0  0  0  0  0  0  0  0  0
    4.7433   -0.6394   -0.3426 H   0  0  0  0  0  0  0  0  0  0  0  0
    6.6576   -1.2458    1.0941 H   0  0  0  0  0  0  0  0  0  0  0  0
    1.4410    1.7204   -2.1708 H   0  0  0  0  0  0  0  0  0  0  0  0
    1.6244   -0.6432   -2.2918 H   0  0  0  0  0  0  0  0  0  0  0  0
   -3.5000   -1.3320   -1.9266 H   0  0  0  0  0  0  0  0  0  0  0  0
   -5.1868   -2.9574   -1.1755 H   0  0  0  0  0  0  0  0  0  0  0  0
   -5.0162   -3.9912    1.0720 H   0  0  0  0  0  0  0  0  0  0  0  0
   -3.1304   -3.3653    2.5425 H   0  0  0  0  0  0  0  0  0  0  0  0
   -1.4571   -1.7566    1.7847 H   0  0  0  0  0  0  0  0  0  0  0  0
   -3.4963    0.5743    0.9182 H   0  0  0  0  0  0  0  0  0  0  0  0
   -4.2688    0.8143    3.1960 H   0  0  0  0  0  0  0  0  0  0  0  0
   -2.7265    1.3226    5.0022 H   0  0  0  0  0  0  0  0  0  0  0  0
   -0.3183    1.5862    4.4796 H   0  0  0  0  0  0  0  0  0  0  0  0
    0.4987    1.3459    2.2343 H   0  0  0  0  0  0  0  0  0  0  0  0
   -1.5033    3.3411    0.8416 H   0  0  0  0  0  0  0  0  0  0  0  0
   -1.9519    5.7247    0.5209 H   0  0  0  0  0  0  0  0  0  0  0  0
   -1.3786    6.8074   -1.6165 H   0  0  0  0  0  0  0  0  0  0  0  0
   -0.3706    5.5039   -3.3742 H   0  0  0  0  0  0  0  0  0  0  0  0
    0.0984    3.1417   -3.0959 H   0  0  0  0  0  0  0  0  0  0  0  0
   -1.1465   -3.2188   -1.4092 H   0  0  0  0  0  0  0  0  0  0  0  0
   -1.6211   -4.8876   -3.0719 H   0  0  0  0  0  0  0  0  0  0  0  0
   -1.4518   -4.3982   -5.4208 H   0  0  0  0  0  0  0  0  0  0  0  0
   -0.8047   -2.1163   -6.1584 H   0  0  0  0  0  0  0  0  0  0  0  0
   -0.3426   -0.3779   -4.5340 H   0  0  0  0  0  0  0  0  0  0  0  0
  1  2  1  0
  2  3  2  0
  3  4  1  0
  4  5  2  0
  5  6  1  0
  6  7  2  0
  5  8  1  0
  8  9  1  0
  9 10  2  0
  9 11  1  0
 11 12  1  0
 12 13  1  0
 13 14  2  0
 12 15  1  0
 15 16  1  0
 16 17  2  0
 16 18  1  0
 18 19  1  0
 19 20  2  0
 20 21  1  0
 21 22  2  0
 22 23  1  0
 23 24  2  0
 24 25  1  0
 25 26  2  0
 19 27  1  0
 27 28  2  0
 28 29  1  0
 29 30  2  0
 30 31  1  0
 31 32  2  0
 18 33  1  0
 33 34  2  0
 34 35  1  0
 35 36  2  0
 36 37  1  0
 37 38  2  0
 15 39  1  0
 39 40  2  0
 40 41  1  0
 41 42  2  0
 42 43  1  0
 43 44  2  0
  7  2  1  0
 13  8  1  0
 18 11  1  0
 20 15  1  0
 26 21  1  0
 32 27  1  0
 38 33  1  0
 44 39  1  0
  1 45  1  0
  1 46  1  0
  1 47  1  0
  3 48  1  0
  4 49  1  0
  6 50  1  0
  7 51  1  0
 11 52  1  0
 12 53  1  0
 22 54  1  0
 23 55  1  0
 24 56  1  0
 25 57  1  0
 26 58  1  0
 28 59  1  0
 29 60  1  0
 30 61  1  0
 31 62  1  0
 32 63  1  0
 34 64  1  0
 35 65  1  0
 36 66  1  0
 37 67  1  0
 38 68  1  0
 40 69  1  0
 41 70  1  0
 42 71  1  0
 43 72  1  0
 44 73  1  0
M  END
>  <Batch_No>  (12) 
5376856

>  <EC50_nM>  (12) 
282

>  <Set>  (12) 
Probe-like

>  <Molecular_Weight>  (12) 
571.66316

>  <ALogP>  (12) 
7.027

$$$$
MMV020885
     RDKit          3D

 58 63  0  0  0  0  0  0  0  0999 V2000
    6.0149   -1.4572   -1.0034 C   0  0  0  0  0  0  0  0  0  0  0  0
    4.7155   -0.9381   -0.7798 O   0  0  0  0  0  0  0  0  0  0  0  0
    4.1363   -0.9030    0.4897 C   0  0  0  0  0  0  0  0  0  0  0  0
    4.7818   -1.3689    1.6171 C   0  0  0  0  0  0  0  0  0  0  0  0
    4.1081   -1.2817    2.8163 C   0  0  0  0  0  0  0  0  0  0  0  0
    2.8259   -0.7479    2.9091 C   0  0  0  0  0  0  0  0  0  0  0  0
    1.9502   -0.6599    4.6199 Br  0  0  0  0  0  0  0  0  0  0  0  0
    2.1795   -0.2813    1.7798 C   0  0  0  0  0  0  0  0  0  0  0  0
    2.8636   -0.3734    0.5830 C   0  0  0  0  0  0  0  0  0  0  0  0
    2.1668    0.1334   -0.6578 C   0  0  0  0  0  0  0  0  0  0  0  0
    2.3310    1.5333   -0.6560 N   0  0  0  0  0  0  0  0  0  0  0  0
    1.2011    2.3754   -0.6808 C   0  0  0  0  0  0  0  0  0  0  0  0
    1.4513    3.7327   -0.7080 C   0  0  0  0  0  0  0  0  0  0  0  0
    0.4252    4.6341   -0.7286 C   0  0  0  0  0  0  0  0  0  0  0  0
   -0.8671    4.1039   -0.7250 C   0  0  0  0  0  0  0  0  0  0  0  0
   -1.8699    5.0571   -0.7996 C   0  0  0  0  0  0  0  0  0  0  0  0
   -3.1635    4.6236   -0.8551 C   0  0  0  0  0  0  0  0  0  0  0  0
   -3.4616    3.3031   -0.8400 C   0  0  0  0  0  0  0  0  0  0  0  0
   -2.4185    2.3493   -0.7621 C   0  0  0  0  0  0  0  0  0  0  0  0
   -1.1086    2.7471   -0.6978 C   0  0  0  0  0  0  0  0  0  0  0  0
   -0.0884    1.8432   -0.6675 C   0  0  0  0  0  0  0  0  0  0  0  0
   -0.3066    0.3807   -0.6262 C   0  0  0  0  0  0  0  0  0  0  0  0
    0.7740   -0.3774   -0.6254 C   0  0  0  0  0  0  0  0  0  0  0  0
    0.7130   -1.8684   -0.6448 C   0  0  0  0  0  0  0  0  0  0  0  0
    1.7360   -2.5741   -0.5376 O   0  0  0  0  0  0  0  0  0  0  0  0
   -0.6546   -2.4325   -0.8008 C   0  0  0  0  0  0  0  0  0  0  0  0
   -1.4626   -1.6336    0.2194 C   0  0  0  0  0  0  0  0  0  0  0  0
   -1.6452   -0.2161   -0.4365 C   0  0  0  0  0  0  0  0  0  0  0  0
   -2.8174   -2.2244    0.2693 C   0  0  0  0  0  0  0  0  0  0  0  0
   -3.3079   -2.5528    1.5311 C   0  0  0  0  0  0  0  0  0  0  0  0
   -4.5662   -3.1078    1.6201 C   0  0  0  0  0  0  0  0  0  0  0  0
   -5.3115   -3.3299    0.5051 C   0  0  0  0  0  0  0  0  0  0  0  0
   -4.8313   -3.0057   -0.7610 C   0  0  0  0  0  0  0  0  0  0  0  0
   -3.5540   -2.4419   -0.8559 C   0  0  0  0  0  0  0  0  0  0  0  0
    6.1437   -1.5776   -2.0963 H   0  0  0  0  0  0  0  0  0  0  0  0
    6.0885   -2.4042   -0.4485 H   0  0  0  0  0  0  0  0  0  0  0  0
    6.7533   -0.7020   -0.6622 H   0  0  0  0  0  0  0  0  0  0  0  0
    5.7745   -1.7802    1.5336 H   0  0  0  0  0  0  0  0  0  0  0  0
    4.5764   -1.6384    3.7462 H   0  0  0  0  0  0  0  0  0  0  0  0
    1.1818    0.1348    1.8478 H   0  0  0  0  0  0  0  0  0  0  0  0
    2.6701   -0.2863   -1.5653 H   0  0  0  0  0  0  0  0  0  0  0  0
    3.2944    1.9334   -0.6360 H   0  0  0  0  0  0  0  0  0  0  0  0
    2.4713    4.1303   -0.7138 H   0  0  0  0  0  0  0  0  0  0  0  0
    0.6112    5.6973   -0.7467 H   0  0  0  0  0  0  0  0  0  0  0  0
   -1.6706    6.1189   -0.8155 H   0  0  0  0  0  0  0  0  0  0  0  0
   -3.9483    5.3396   -0.9104 H   0  0  0  0  0  0  0  0  0  0  0  0
   -4.4960    3.0031   -0.8878 H   0  0  0  0  0  0  0  0  0  0  0  0
   -2.7838    1.3714   -0.8363 H   0  0  0  0  0  0  0  0  0  0  0  0
   -0.9810   -2.1647   -1.8198 H   0  0  0  0  0  0  0  0  0  0  0  0
   -0.7592   -3.4816   -0.5792 H   0  0  0  0  0  0  0  0  0  0  0  0
   -0.9658   -1.5632    1.1771 H   0  0  0  0  0  0  0  0  0  0  0  0
   -2.1835    0.2201    0.4449 H   0  0  0  0  0  0  0  0  0  0  0  0
   -2.1881   -0.5237   -1.3114 H   0  0  0  0  0  0  0  0  0  0  0  0
   -2.7068   -2.3738    2.4321 H   0  0  0  0  0  0  0  0  0  0  0  0
   -4.8992   -3.3458    2.6417 H   0  0  0  0  0  0  0  0  0  0  0  0
   -6.3033   -3.7693    0.5960 H   0  0  0  0  0  0  0  0  0  0  0  0
   -5.4194   -3.1796   -1.6555 H   0  0  0  0  0  0  0  0  0  0  0  0
   -3.1995   -2.1990   -1.8448 H   0  0  0  0  0  0  0  0  0  0  0  0
  1  2  1  0
  2  3  1  0
  3  4  2  0
  4  5  1  0
  5  6  2  0
  6  7  1  0
  6  8  1  0
  8  9  2  0
  9 10  1  0
 10 11  1  0
 11 12  1  0
 12 13  2  0
 13 14  1  0
 14 15  2  0
 15 16  1  0
 16 17  2  0
 17 18  1  0
 18 19  2  0
 19 20  1  0
 20 21  2  0
 21 22  1  0
 22 23  2  0
 23 24  1  0
 24 25  2  0
 24 26  1  0
 26 27  1  0
 27 28  1  0
 27 29  1  0
 29 30  2  0
 30 31  1  0
 31 32  2  0
 32 33  1  0
 33 34  2  0
  9  3  1  0
 23 10  1  0
 21 12  1  0
 20 15  1  0
 28 22  1  0
 34 29  1  0
  1 35  1  0
  1 36  1  0
  1 37  1  0
  4 38  1  0
  5 39  1  0
  8 40  1  0
 10 41  1  0
 11 42  1  0
 13 43  1  0
 14 44  1  0
 16 45  1  0
 17 46  1  0
 18 47  1  0
 19 48  1  0
 26 49  1  0
 26 50  1  0
 27 51  1  0
 28 52  1  0
 28 53  1  0
 30 54  1  0
 31 55  1  0
 32 56  1  0
 33 57  1  0
 34 58  1  0
M  END
>  <Batch_No>  (13) 
2641-1589

>  <EC50_nM>  (13) 
180

>  <Set>  (13) 
Probe-like

>  <Molecular_Weight>  (13) 
510.42105

>  <ALogP>  (13) 
6.828

$$$$
MMV000570
     RDKit          3D

 39 41  0  0  0  0  0  0  0  0999 V2000
    6.0885   -0.8909    0.4382 C   0  0  0  0  0  0  0  0  0  0  0  0
    5.5475    0.0526   -0.6360 C   0  0  0  0  0  0  0  0  0  0  0  0
    4.1484    0.3913   -0.2717 C   0  0  0  0  0  0  0  0  0  0  0  0
    3.9227    1.4763    0.5144 C   0  0  0  0  0  0  0  0  0  0  0  0
    2.6510    1.8303    0.8781 C   0  0  0  0  0  0  0  0  0  0  0  0
    1.5216    1.1030    0.4657 C   0  0  0  0  0  0  0  0  0  0  0  0
    0.2453    1.5232    0.8766 N   0  0  0  0  0  0  0  0  0  0  0  0
   -0.9964    0.9362    0.5722 C   0  0  0  0  0  0  0  0  0  0  0  0
   -2.1605    1.5010    1.0756 C   0  0  0  0  0  0  0  0  0  0  0  0
   -3.4076    0.9746    0.8146 C   0  0  0  0  0  0  0  0  0  0  0  0
   -4.6367    1.5897    1.3593 C   0  0  0  0  0  0  0  0  0  0  0  0
   -3.5320   -0.1488    0.0310 C   0  0  0  0  0  0  0  0  0  0  0  0
   -4.7691   -0.6922   -0.2429 C   0  0  0  0  0  0  0  0  0  0  0  0
   -4.8593   -1.8196   -1.0323 C   0  0  0  0  0  0  0  0  0  0  0  0
   -3.7106   -2.4041   -1.5482 C   0  0  0  0  0  0  0  0  0  0  0  0
   -3.7933   -3.5466   -2.3490 O   0  0  0  0  0  0  0  0  0  0  0  0
   -2.4816   -1.8379   -1.2574 C   0  0  0  0  0  0  0  0  0  0  0  0
   -2.3687   -0.7005   -0.4630 C   0  0  0  0  0  0  0  0  0  0  0  0
   -1.1702   -0.1596   -0.1873 N   0  0  0  0  0  0  0  0  0  0  0  0
    1.7909    0.0147   -0.3266 C   0  0  0  0  0  0  0  0  0  0  0  0
    3.0834   -0.3497   -0.6995 C   0  0  0  0  0  0  0  0  0  0  0  0
    7.0929   -1.2820    0.1388 H   0  0  0  0  0  0  0  0  0  0  0  0
    5.4191   -1.7446    0.5565 H   0  0  0  0  0  0  0  0  0  0  0  0
    6.2011   -0.3211    1.3802 H   0  0  0  0  0  0  0  0  0  0  0  0
    6.1679    0.9650   -0.5816 H   0  0  0  0  0  0  0  0  0  0  0  0
    5.5916   -0.4430   -1.6260 H   0  0  0  0  0  0  0  0  0  0  0  0
    4.7668    2.0674    0.8562 H   0  0  0  0  0  0  0  0  0  0  0  0
    2.5473    2.7120    1.5098 H   0  0  0  0  0  0  0  0  0  0  0  0
    0.2142    2.3897    1.4921 H   0  0  0  0  0  0  0  0  0  0  0  0
   -2.1316    2.3862    1.6992 H   0  0  0  0  0  0  0  0  0  0  0  0
   -4.3576    2.5956    1.7777 H   0  0  0  0  0  0  0  0  0  0  0  0
   -5.4126    1.8064    0.6098 H   0  0  0  0  0  0  0  0  0  0  0  0
   -4.9954    1.0211    2.2447 H   0  0  0  0  0  0  0  0  0  0  0  0
   -5.6400   -0.2064    0.1784 H   0  0  0  0  0  0  0  0  0  0  0  0
   -5.8292   -2.2427   -1.2450 H   0  0  0  0  0  0  0  0  0  0  0  0
   -3.4273   -4.4053   -1.9391 H   0  0  0  0  0  0  0  0  0  0  0  0
   -1.6062   -2.3216   -1.6777 H   0  0  0  0  0  0  0  0  0  0  0  0
    1.0052   -0.6099   -0.6973 H   0  0  0  0  0  0  0  0  0  0  0  0
    3.2805   -1.2099   -1.3244 H   0  0  0  0  0  0  0  0  0  0  0  0
  1  2  1  0
  2  3  1  0
  3  4  2  0
  4  5  1  0
  5  6  2  0
  6  7  1  0
  7  8  1  0
  8  9  2  0
  9 10  1  0
 10 11  1  0
 10 12  2  0
 12 13  1  0
 13 14  2  0
 14 15  1  0
 15 16  1  0
 15 17  2  0
 17 18  1  0
 18 19  2  0
  6 20  1  0
 20 21  2  0
 21  3  1  0
 19  8  1  0
 18 12  1  0
  1 22  1  0
  1 23  1  0
  1 24  1  0
  2 25  1  0
  2 26  1  0
  4 27  1  0
  5 28  1  0
  7 29  1  0
  9 30  1  0
 11 31  1  0
 11 32  1  0
 11 33  1  0
 13 34  1  0
 14 35  1  0
 16 36  1  0
 17 37  1  0
 20 38  1  0
 21 39  1  0
M  END
>  <Batch_No>  (14) 
C614-0191

>  <EC50_nM>  (14) 
194

>  <Set>  (14) 
Probe-like

>  <Molecular_Weight>  (14) 
278.34832

>  <ALogP>  (14) 
5.292

$$$$
MMV020439
     RDKit          3D

 62 66  0  0  0  0  0  0  0  0999 V2000
    0.2849   -0.3552   -4.5738 C   0  0  0  0  0  0  0  0  0  0  0  0
    0.1720   -1.0595   -3.2564 C   0  0  0  0  0  0  0  0  0  0  0  0
    0.8337   -0.2972   -2.2259 N   0  0  0  0  0  0  0  0  0  0  0  0
    0.2273    0.6479   -1.4752 C   0  0  0  0  0  0  0  0  0  0  0  0
   -1.1783    1.0988   -1.5294 C   0  0  0  0  0  0  0  0  0  0  0  0
   -2.0485    0.3658   -0.6700 N   0  0  0  0  0  0  0  0  0  0  0  0
   -1.6660    0.4578    0.7304 C   0  0  0  0  0  0  0  0  0  0  0  0
   -2.8615    0.3022    1.6470 C   0  0  0  0  0  0  0  0  0  0  0  0
   -3.6042    1.5276    1.5882 N   0  0  0  0  0  0  0  0  0  0  0  0
   -4.8854    1.5076    2.2077 C   0  0  0  0  0  0  0  0  0  0  0  0
   -5.7896    0.4908    1.6532 C   0  0  0  0  0  0  0  0  0  0  0  0
   -5.7713   -0.7886    2.2114 C   0  0  0  0  0  0  0  0  0  0  0  0
   -6.5838   -1.7966    1.7603 C   0  0  0  0  0  0  0  0  0  0  0  0
   -7.4586   -1.5735    0.7238 C   0  0  0  0  0  0  0  0  0  0  0  0
   -7.4912   -0.3154    0.1592 C   0  0  0  0  0  0  0  0  0  0  0  0
   -6.6697    0.6879    0.6221 C   0  0  0  0  0  0  0  0  0  0  0  0
   -3.5941    2.0283    0.2446 C   0  0  0  0  0  0  0  0  0  0  0  0
   -3.3826    0.9297   -0.7799 C   0  0  0  0  0  0  0  0  0  0  0  0
    1.1451    1.1512   -0.6172 N   0  0  0  0  0  0  0  0  0  0  0  0
    2.3264    0.5415   -0.8096 C   0  0  0  0  0  0  0  0  0  0  0  0
    3.5513    0.7020   -0.1915 C   0  0  0  0  0  0  0  0  0  0  0  0
    4.5962   -0.0887   -0.6210 C   0  0  0  0  0  0  0  0  0  0  0  0
    5.9046   -0.0200   -0.0668 N   0  0  0  0  0  0  0  0  0  0  0  0
    6.3229   -0.8115    1.0403 C   0  0  0  0  0  0  0  0  0  0  0  0
    5.5280   -1.6249    1.5858 O   0  0  0  0  0  0  0  0  0  0  0  0
    7.6552   -0.6765    1.5302 C   0  0  0  0  0  0  0  0  0  0  0  0
    8.2989   -1.2960    2.5496 C   0  0  0  0  0  0  0  0  0  0  0  0
    9.5626   -1.0181    2.8430 C   0  0  0  0  0  0  0  0  0  0  0  0
   10.2207   -0.0539    2.0590 C   0  0  0  0  0  0  0  0  0  0  0  0
    8.9079    0.4634    0.8328 S   0  0  0  0  0  0  0  0  0  0  0  0
    4.4005   -1.0042   -1.6374 C   0  0  0  0  0  0  0  0  0  0  0  0
    3.1696   -1.1572   -2.2499 C   0  0  0  0  0  0  0  0  0  0  0  0
    2.1194   -0.3691   -1.8252 C   0  0  0  0  0  0  0  0  0  0  0  0
    0.5556   -1.0564   -5.3918 H   0  0  0  0  0  0  0  0  0  0  0  0
   -0.6375    0.2117   -4.8245 H   0  0  0  0  0  0  0  0  0  0  0  0
    1.0910    0.4343   -4.5322 H   0  0  0  0  0  0  0  0  0  0  0  0
   -0.8571   -1.3510   -2.9989 H   0  0  0  0  0  0  0  0  0  0  0  0
    0.7284   -2.0399   -3.3202 H   0  0  0  0  0  0  0  0  0  0  0  0
   -1.6102    1.0439   -2.5544 H   0  0  0  0  0  0  0  0  0  0  0  0
   -1.1894    2.2039   -1.2988 H   0  0  0  0  0  0  0  0  0  0  0  0
   -1.1537    1.3946    0.9563 H   0  0  0  0  0  0  0  0  0  0  0  0
   -0.9677   -0.3804    0.9354 H   0  0  0  0  0  0  0  0  0  0  0  0
   -3.5178   -0.5163    1.2761 H   0  0  0  0  0  0  0  0  0  0  0  0
   -2.4818    0.0269    2.6403 H   0  0  0  0  0  0  0  0  0  0  0  0
   -5.4089    2.4963    2.1028 H   0  0  0  0  0  0  0  0  0  0  0  0
   -4.7849    1.3185    3.3087 H   0  0  0  0  0  0  0  0  0  0  0  0
   -5.1041   -1.0297    3.0318 H   0  0  0  0  0  0  0  0  0  0  0  0
   -6.5442   -2.7918    2.2218 H   0  0  0  0  0  0  0  0  0  0  0  0
   -8.1234   -2.3347    0.3278 H   0  0  0  0  0  0  0  0  0  0  0  0
   -8.1758   -0.1128   -0.6637 H   0  0  0  0  0  0  0  0  0  0  0  0
   -6.7344    1.6396    0.1561 H   0  0  0  0  0  0  0  0  0  0  0  0
   -4.5406    2.5425    0.0126 H   0  0  0  0  0  0  0  0  0  0  0  0
   -2.7382    2.7562    0.1311 H   0  0  0  0  0  0  0  0  0  0  0  0
   -3.4584    1.4043   -1.7778 H   0  0  0  0  0  0  0  0  0  0  0  0
   -4.1688    0.1673   -0.7433 H   0  0  0  0  0  0  0  0  0  0  0  0
    3.7157    1.4209    0.6106 H   0  0  0  0  0  0  0  0  0  0  0  0
    6.5606    0.6665   -0.5345 H   0  0  0  0  0  0  0  0  0  0  0  0
    7.7231   -2.0647    3.1500 H   0  0  0  0  0  0  0  0  0  0  0  0
   10.1403   -1.4873    3.6588 H   0  0  0  0  0  0  0  0  0  0  0  0
   11.1980    0.3539    2.0653 H   0  0  0  0  0  0  0  0  0  0  0  0
    5.2050   -1.6309   -1.9865 H   0  0  0  0  0  0  0  0  0  0  0  0
    3.0366   -1.8819   -3.0464 H   0  0  0  0  0  0  0  0  0  0  0  0
  1  2  1  0
  2  3  1  0
  3  4  1  0
  4  5  1  0
  5  6  1  0
  6  7  1  0
  7  8  1  0
  8  9  1  0
  9 10  1  0
 10 11  1  0
 11 12  2  0
 12 13  1  0
 13 14  2  0
 14 15  1  0
 15 16  2  0
  9 17  1  0
 17 18  1  0
  4 19  2  0
 19 20  1  0
 20 21  2  0
 21 22  1  0
 22 23  1  0
 23 24  1  0
 24 25  2  0
 24 26  1  0
 26 27  2  0
 27 28  1  0
 28 29  2  0
 29 30  1  0
 22 31  2  0
 31 32  1  0
 32 33  2  0
 33  3  1  0
 18  6  1  0
 16 11  1  0
 33 20  1  0
 30 26  1  0
  1 34  1  0
  1 35  1  0
  1 36  1  0
  2 37  1  0
  2 38  1  0
  5 39  1  0
  5 40  1  0
  7 41  1  0
  7 42  1  0
  8 43  1  0
  8 44  1  0
 10 45  1  0
 10 46  1  0
 12 47  1  0
 13 48  1  0
 14 49  1  0
 15 50  1  0
 16 51  1  0
 17 52  1  0
 17 53  1  0
 18 54  1  0
 18 55  1  0
 21 56  1  0
 23 57  1  0
 27 58  1  0
 28 59  1  0
 29 60  1  0
 31 61  1  0
 32 62  1  0
M  END
>  <Batch_No>  (15) 
D305-0414

>  <EC50_nM>  (15) 
512

>  <Set>  (15) 
Drug-like

>  <Molecular_Weight>  (15) 
459.60636

>  <ALogP>  (15) 
4.446

$$$$
MMV396672
     RDKit          3D

 50 52  0  0  0  0  0  0  0  0999 V2000
    6.1286    2.8915    0.7015 C   0  0  0  0  0  0  0  0  0  0  0  0
    5.7578    3.9823    1.4579 F   0  0  0  0  0  0  0  0  0  0  0  0
    7.1816    2.2872    1.3653 F   0  0  0  0  0  0  0  0  0  0  0  0
    6.5847    3.2713   -0.5588 F   0  0  0  0  0  0  0  0  0  0  0  0
    5.0128    1.9337    0.4844 C   0  0  0  0  0  0  0  0  0  0  0  0
    4.8377    0.8456    1.3391 C   0  0  0  0  0  0  0  0  0  0  0  0
    3.7975   -0.0600    1.1486 C   0  0  0  0  0  0  0  0  0  0  0  0
    4.1222    2.0686   -0.5416 C   0  0  0  0  0  0  0  0  0  0  0  0
    3.0910    1.1658   -0.7257 C   0  0  0  0  0  0  0  0  0  0  0  0
    2.9057    0.0885    0.1085 C   0  0  0  0  0  0  0  0  0  0  0  0
    1.8414   -0.8870   -0.0400 C   0  0  0  0  0  0  0  0  0  0  0  0
    1.8110   -1.8214    0.8152 O   0  0  0  0  0  0  0  0  0  0  0  0
    0.8635   -0.8340   -1.0766 N   0  0  0  0  0  0  0  0  0  0  0  0
   -0.1973   -1.8015   -1.2265 C   0  0  0  0  0  0  0  0  0  0  0  0
   -1.0997   -1.8575   -0.0464 C   0  0  0  0  0  0  0  0  0  0  0  0
   -1.7647   -0.6492    0.2659 N   0  0  0  0  0  0  0  0  0  0  0  0
   -2.6185   -0.0648   -0.6931 C   0  0  0  0  0  0  0  0  0  0  0  0
   -3.7421    0.6080    0.0820 C   0  0  0  0  0  0  0  0  0  0  0  0
   -3.3568    1.8453    0.7946 C   0  0  0  0  0  0  0  0  0  0  0  0
   -2.0155    2.4218    0.4729 C   0  0  0  0  0  0  0  0  0  0  0  0
   -0.8599    1.5704    0.8886 C   0  0  0  0  0  0  0  0  0  0  0  0
   -1.2406    0.1731    1.2855 C   0  0  0  0  0  0  0  0  0  0  0  0
   -2.1538   -2.9317   -0.2096 C   0  0  0  0  0  0  0  0  0  0  0  0
   -3.1836   -3.0630    0.6468 C   0  0  0  0  0  0  0  0  0  0  0  0
   -4.0788   -4.0376    0.4386 C   0  0  0  0  0  0  0  0  0  0  0  0
   -3.5796   -4.9175   -1.0210 S   0  0  0  0  0  0  0  0  0  0  0  0
   -2.0801   -3.8133   -1.2572 C   0  0  0  0  0  0  0  0  0  0  0  0
    5.5503    0.7479    2.1503 H   0  0  0  0  0  0  0  0  0  0  0  0
    3.7508   -0.8683    1.8677 H   0  0  0  0  0  0  0  0  0  0  0  0
    4.2275    2.9024   -1.2257 H   0  0  0  0  0  0  0  0  0  0  0  0
    2.4343    1.3314   -1.5449 H   0  0  0  0  0  0  0  0  0  0  0  0
    0.9549   -0.0345   -1.7444 H   0  0  0  0  0  0  0  0  0  0  0  0
   -0.7763   -1.5280   -2.1243 H   0  0  0  0  0  0  0  0  0  0  0  0
    0.3092   -2.7477   -1.4670 H   0  0  0  0  0  0  0  0  0  0  0  0
   -0.4815   -2.1399    0.8284 H   0  0  0  0  0  0  0  0  0  0  0  0
   -2.1510    0.7099   -1.3318 H   0  0  0  0  0  0  0  0  0  0  0  0
   -3.0591   -0.8530   -1.3164 H   0  0  0  0  0  0  0  0  0  0  0  0
   -4.6208    0.7471   -0.6094 H   0  0  0  0  0  0  0  0  0  0  0  0
   -4.1255   -0.1288    0.8399 H   0  0  0  0  0  0  0  0  0  0  0  0
   -3.4720    1.7512    1.9137 H   0  0  0  0  0  0  0  0  0  0  0  0
   -4.1000    2.6359    0.5242 H   0  0  0  0  0  0  0  0  0  0  0  0
   -1.9506    3.3691    1.0592 H   0  0  0  0  0  0  0  0  0  0  0  0
   -1.9914    2.7594   -0.5851 H   0  0  0  0  0  0  0  0  0  0  0  0
   -0.1524    1.5248    0.0364 H   0  0  0  0  0  0  0  0  0  0  0  0
   -0.2952    1.9939    1.7454 H   0  0  0  0  0  0  0  0  0  0  0  0
   -1.9743    0.2967    2.1358 H   0  0  0  0  0  0  0  0  0  0  0  0
   -0.3606   -0.3015    1.7505 H   0  0  0  0  0  0  0  0  0  0  0  0
   -3.2957   -2.3688    1.5244 H   0  0  0  0  0  0  0  0  0  0  0  0
   -4.9639   -4.2633    1.0495 H   0  0  0  0  0  0  0  0  0  0  0  0
   -1.4214   -3.9507   -2.0501 H   0  0  0  0  0  0  0  0  0  0  0  0
  1  2  1  0
  1  3  1  0
  1  4  1  0
  1  5  1  0
  5  6  2  0
  6  7  1  0
  5  8  1  0
  8  9  2  0
  9 10  1  0
 10 11  1  0
 11 12  2  0
 11 13  1  0
 13 14  1  0
 14 15  1  0
 15 16  1  0
 16 17  1  0
 17 18  1  0
 18 19  1  0
 19 20  1  0
 20 21  1  0
 21 22  1  0
 15 23  1  0
 23 24  1  0
 24 25  2  0
 25 26  1  0
 23 27  2  0
 10  7  2  0
 22 16  1  0
 27 26  1  0
  6 28  1  0
  7 29  1  0
  8 30  1  0
  9 31  1  0
 13 32  1  0
 14 33  1  0
 14 34  1  0
 15 35  1  0
 17 36  1  0
 17 37  1  0
 18 38  1  0
 18 39  1  0
 19 40  1  0
 19 41  1  0
 20 42  1  0
 20 43  1  0
 21 44  1  0
 21 45  1  0
 22 46  1  0
 22 47  1  0
 24 48  1  0
 25 49  1  0
 27 50  1  0
M  END
>  <Batch_No>  (16) 
F2392-0731-1

>  <EC50_nM>  (16) 
433

>  <Set>  (16) 
Drug-like

>  <Molecular_Weight>  (16) 
396.46962

>  <ALogP>  (16) 
4.766

$$$$
MMV019871
     RDKit          3D

 44 47  0  0  0  0  0  0  0  0999 V2000
    7.5956   -0.0432    1.8398 F   0  0  0  0  0  0  0  0  0  0  0  0
    6.4033   -0.1822    1.1768 C   0  0  0  0  0  0  0  0  0  0  0  0
    6.1810   -1.2417    0.3335 C   0  0  0  0  0  0  0  0  0  0  0  0
    4.9696   -1.3856   -0.3419 C   0  0  0  0  0  0  0  0  0  0  0  0
    3.9955   -0.4222   -0.1337 C   0  0  0  0  0  0  0  0  0  0  0  0
    2.7509   -0.3531   -0.6767 N   0  0  0  0  0  0  0  0  0  0  0  0
    2.1741    0.7574   -0.1774 C   0  0  0  0  0  0  0  0  0  0  0  0
    0.8918    1.2579   -0.4381 C   0  0  0  0  0  0  0  0  0  0  0  0
   -0.0070    0.6069   -1.3211 N   0  0  0  0  0  0  0  0  0  0  0  0
   -1.3267    1.0639   -1.6282 C   0  0  0  0  0  0  0  0  0  0  0  0
   -2.1492    1.0885   -0.3452 C   0  0  0  0  0  0  0  0  0  0  0  0
   -2.1941   -0.2940    0.2101 C   0  0  0  0  0  0  0  0  0  0  0  0
   -2.7794   -1.2672   -0.6510 N   0  0  0  0  0  0  0  0  0  0  0  0
   -2.7544   -2.5670    0.0230 C   0  0  0  0  0  0  0  0  0  0  0  0
   -3.9543   -2.7189    0.9026 C   0  0  0  0  0  0  0  0  0  0  0  0
   -4.5543   -1.5253    1.2677 O   0  0  0  0  0  0  0  0  0  0  0  0
   -5.0583   -0.8874    0.1527 C   0  0  0  0  0  0  0  0  0  0  0  0
   -4.1255   -1.0292   -1.0475 C   0  0  0  0  0  0  0  0  0  0  0  0
    0.5891    2.4026    0.2151 N   0  0  0  0  0  0  0  0  0  0  0  0
    1.4510    3.0099    1.0472 C   0  0  0  0  0  0  0  0  0  0  0  0
    2.6793    2.5246    1.2929 N   0  0  0  0  0  0  0  0  0  0  0  0
    3.0447    1.3930    0.6786 C   0  0  0  0  0  0  0  0  0  0  0  0
    4.2033    0.6484    0.7104 C   0  0  0  0  0  0  0  0  0  0  0  0
    5.4112    0.7671    1.3667 C   0  0  0  0  0  0  0  0  0  0  0  0
    6.9904   -1.9541    0.2219 H   0  0  0  0  0  0  0  0  0  0  0  0
    4.8279   -2.2195   -0.9899 H   0  0  0  0  0  0  0  0  0  0  0  0
    2.3047   -1.0146   -1.3492 H   0  0  0  0  0  0  0  0  0  0  0  0
    0.3508   -0.2767   -1.7700 H   0  0  0  0  0  0  0  0  0  0  0  0
   -1.3154    2.0741   -2.1078 H   0  0  0  0  0  0  0  0  0  0  0  0
   -1.7895    0.3990   -2.3830 H   0  0  0  0  0  0  0  0  0  0  0  0
   -1.6776    1.7525    0.4049 H   0  0  0  0  0  0  0  0  0  0  0  0
   -3.1512    1.5321   -0.5205 H   0  0  0  0  0  0  0  0  0  0  0  0
   -2.5952   -0.2439    1.2272 H   0  0  0  0  0  0  0  0  0  0  0  0
   -1.1189   -0.6062    0.3374 H   0  0  0  0  0  0  0  0  0  0  0  0
   -2.7343   -3.3294   -0.8002 H   0  0  0  0  0  0  0  0  0  0  0  0
   -1.7999   -2.6234    0.5769 H   0  0  0  0  0  0  0  0  0  0  0  0
   -4.7343   -3.3448    0.3837 H   0  0  0  0  0  0  0  0  0  0  0  0
   -3.6887   -3.3067    1.8288 H   0  0  0  0  0  0  0  0  0  0  0  0
   -5.2516    0.1876    0.2908 H   0  0  0  0  0  0  0  0  0  0  0  0
   -6.0588   -1.3528   -0.0445 H   0  0  0  0  0  0  0  0  0  0  0  0
   -4.2697   -0.2211   -1.7753 H   0  0  0  0  0  0  0  0  0  0  0  0
   -4.4636   -1.9723   -1.5599 H   0  0  0  0  0  0  0  0  0  0  0  0
    1.1660    3.9321    1.5539 H   0  0  0  0  0  0  0  0  0  0  0  0
    5.5716    1.5935    2.0182 H   0  0  0  0  0  0  0  0  0  0  0  0
  1  2  1  0
  2  3  2  0
  3  4  1  0
  4  5  2  0
  5  6  1  0
  6  7  1  0
  7  8  2  0
  8  9  1  0
  9 10  1  0
 10 11  1  0
 11 12  1  0
 12 13  1  0
 13 14  1  0
 14 15  1  0
 15 16  1  0
 16 17  1  0
 17 18  1  0
  8 19  1  0
 19 20  2  0
 20 21  1  0
 21 22  2  0
 22 23  1  0
 23 24  2  0
 24  2  1  0
 23  5  1  0
 22  7  1  0
 18 13  1  0
  3 25  1  0
  4 26  1  0
  6 27  1  0
  9 28  1  0
 10 29  1  0
 10 30  1  0
 11 31  1  0
 11 32  1  0
 12 33  1  0
 12 34  1  0
 14 35  1  0
 14 36  1  0
 15 37  1  0
 15 38  1  0
 17 39  1  0
 17 40  1  0
 18 41  1  0
 18 42  1  0
 20 43  1  0
 24 44  1  0
M  END
>  <Batch_No>  (17) 
STK544185

>  <EC50_nM>  (17) 
345

>  <Set>  (17) 
Drug-like

>  <Molecular_Weight>  (17) 
329.372

>  <ALogP>  (17) 
2.415

$$$$
MMV085583
     RDKit          3D

 78 82  0  0  0  0  0  0  0  0999 V2000
   -5.6664   -4.9427   -0.8517 C   0  0  0  0  0  0  0  0  0  0  0  0
   -6.1301   -3.8601   -1.7885 C   0  0  0  0  0  0  0  0  0  0  0  0
   -4.9819   -2.8723   -1.9021 C   0  0  0  0  0  0  0  0  0  0  0  0
   -4.7261   -2.3484   -0.4870 C   0  0  0  0  0  0  0  0  0  0  0  0
   -3.5684   -1.3426   -0.5374 C   0  0  0  0  0  0  0  0  0  0  0  0
   -3.3006   -0.8105    0.8294 C   0  0  0  0  0  0  0  0  0  0  0  0
   -3.9842   -1.2660    1.7574 O   0  0  0  0  0  0  0  0  0  0  0  0
   -2.2817    0.1738    0.9375 N   0  0  0  0  0  0  0  0  0  0  0  0
   -1.4477    0.4547   -0.2194 C   0  0  0  0  0  0  0  0  0  0  0  0
   -0.0028    0.2740    0.0820 C   0  0  0  0  0  0  0  0  0  0  0  0
    0.6226   -0.2585   -0.9839 C   0  0  0  0  0  0  0  0  0  0  0  0
   -0.1321   -0.5326   -2.1114 O   0  0  0  0  0  0  0  0  0  0  0  0
    2.0731   -0.5391   -0.9431 C   0  0  0  0  0  0  0  0  0  0  0  0
    2.8129    0.4464   -0.0569 C   0  0  0  0  0  0  0  0  0  0  0  0
    2.2610    0.5193    1.3209 C   0  0  0  0  0  0  0  0  0  0  0  0
    0.7792    0.5746    1.2919 C   0  0  0  0  0  0  0  0  0  0  0  0
    0.3769    0.9216    2.4859 N   0  0  0  0  0  0  0  0  0  0  0  0
   -0.9912    1.0982    2.9142 C   0  0  0  0  0  0  0  0  0  0  0  0
   -1.0948    1.6702    4.1657 C   0  0  0  0  0  0  0  0  0  0  0  0
   -2.3481    1.9055    4.6967 C   0  0  0  0  0  0  0  0  0  0  0  0
   -3.5188    1.5921    4.0268 C   0  0  0  0  0  0  0  0  0  0  0  0
   -3.4187    1.0215    2.7776 C   0  0  0  0  0  0  0  0  0  0  0  0
   -2.1555    0.7760    2.2265 C   0  0  0  0  0  0  0  0  0  0  0  0
    4.2430    0.1270   -0.1173 C   0  0  0  0  0  0  0  0  0  0  0  0
    5.1599    1.0145   -0.6802 C   0  0  0  0  0  0  0  0  0  0  0  0
    6.5009    0.6425   -0.7023 C   0  0  0  0  0  0  0  0  0  0  0  0
    6.9156   -0.5748   -0.1804 C   0  0  0  0  0  0  0  0  0  0  0  0
    8.2397   -0.9700   -0.1887 O   0  0  0  0  0  0  0  0  0  0  0  0
    9.2857   -0.1791   -0.7237 C   0  0  0  0  0  0  0  0  0  0  0  0
    6.0069   -1.4639    0.3822 C   0  0  0  0  0  0  0  0  0  0  0  0
    6.4415   -2.6811    0.9012 O   0  0  0  0  0  0  0  0  0  0  0  0
    5.4266   -3.5287    1.4615 C   0  0  0  0  0  0  0  0  0  0  0  0
    4.6815   -1.0787    0.3957 C   0  0  0  0  0  0  0  0  0  0  0  0
   -1.6151    1.8304   -0.7497 C   0  0  0  0  0  0  0  0  0  0  0  0
   -2.8730    2.4104   -0.9283 C   0  0  0  0  0  0  0  0  0  0  0  0
   -2.9960    3.7051   -1.4282 C   0  0  0  0  0  0  0  0  0  0  0  0
   -1.9100    4.4516   -1.7599 C   0  0  0  0  0  0  0  0  0  0  0  0
   -0.6599    3.8996   -1.5919 C   0  0  0  0  0  0  0  0  0  0  0  0
   -0.5382    2.6181   -1.0970 C   0  0  0  0  0  0  0  0  0  0  0  0
   -1.9694    5.8384   -2.2976 C   0  0  0  0  0  0  0  0  0  0  0  0
   -1.2864    5.8256   -3.5118 F   0  0  0  0  0  0  0  0  0  0  0  0
   -1.2823    6.7348   -1.4929 F   0  0  0  0  0  0  0  0  0  0  0  0
   -3.2520    6.2431   -2.5587 F   0  0  0  0  0  0  0  0  0  0  0  0
   -4.5552   -5.1133   -0.8877 H   0  0  0  0  0  0  0  0  0  0  0  0
   -5.9180   -4.6841    0.2011 H   0  0  0  0  0  0  0  0  0  0  0  0
   -6.1946   -5.8733   -1.0742 H   0  0  0  0  0  0  0  0  0  0  0  0
   -6.9694   -3.3271   -1.3189 H   0  0  0  0  0  0  0  0  0  0  0  0
   -6.4375   -4.2556   -2.7760 H   0  0  0  0  0  0  0  0  0  0  0  0
   -5.3169   -2.0614   -2.5615 H   0  0  0  0  0  0  0  0  0  0  0  0
   -4.0787   -3.3410   -2.3356 H   0  0  0  0  0  0  0  0  0  0  0  0
   -5.6516   -1.8861   -0.1248 H   0  0  0  0  0  0  0  0  0  0  0  0
   -4.4457   -3.1903    0.1738 H   0  0  0  0  0  0  0  0  0  0  0  0
   -2.6739   -1.9496   -0.8043 H   0  0  0  0  0  0  0  0  0  0  0  0
   -3.8432   -0.5891   -1.2734 H   0  0  0  0  0  0  0  0  0  0  0  0
   -1.6923   -0.2172   -1.0674 H   0  0  0  0  0  0  0  0  0  0  0  0
   -0.3146   -1.5030   -2.3906 H   0  0  0  0  0  0  0  0  0  0  0  0
    2.4619   -0.5333   -1.9587 H   0  0  0  0  0  0  0  0  0  0  0  0
    2.3019   -1.5447   -0.5191 H   0  0  0  0  0  0  0  0  0  0  0  0
    2.6927    1.4474   -0.5466 H   0  0  0  0  0  0  0  0  0  0  0  0
    2.5676    1.5071    1.7799 H   0  0  0  0  0  0  0  0  0  0  0  0
    2.6528   -0.2299    2.0367 H   0  0  0  0  0  0  0  0  0  0  0  0
   -0.1958    1.9329    4.7272 H   0  0  0  0  0  0  0  0  0  0  0  0
   -2.4649    2.3573    5.6864 H   0  0  0  0  0  0  0  0  0  0  0  0
   -4.4959    1.7800    4.4490 H   0  0  0  0  0  0  0  0  0  0  0  0
   -4.2931    0.7681    2.1928 H   0  0  0  0  0  0  0  0  0  0  0  0
    4.8471    1.9655   -1.0897 H   0  0  0  0  0  0  0  0  0  0  0  0
    7.2278    1.3183   -1.1352 H   0  0  0  0  0  0  0  0  0  0  0  0
    8.9386    0.1297   -1.7521 H   0  0  0  0  0  0  0  0  0  0  0  0
   10.1967   -0.8068   -0.7955 H   0  0  0  0  0  0  0  0  0  0  0  0
    9.4249    0.7682   -0.1769 H   0  0  0  0  0  0  0  0  0  0  0  0
    4.7685   -3.9087    0.6466 H   0  0  0  0  0  0  0  0  0  0  0  0
    4.8908   -2.9460    2.2276 H   0  0  0  0  0  0  0  0  0  0  0  0
    5.9207   -4.4064    1.9221 H   0  0  0  0  0  0  0  0  0  0  0  0
    3.9611   -1.7554    0.8276 H   0  0  0  0  0  0  0  0  0  0  0  0
   -3.7330    1.8278   -0.6693 H   0  0  0  0  0  0  0  0  0  0  0  0
   -3.9771    4.1688   -1.5715 H   0  0  0  0  0  0  0  0  0  0  0  0
    0.2531    4.4320   -1.8336 H   0  0  0  0  0  0  0  0  0  0  0  0
    0.4500    2.1992   -0.9713 H   0  0  0  0  0  0  0  0  0  0  0  0
  1  2  1  0
  2  3  1  0
  3  4  1  0
  4  5  1  0
  5  6  1  0
  6  7  2  0
  6  8  1  0
  8  9  1  0
  9 10  1  0
 10 11  2  0
 11 12  1  0
 11 13  1  0
 13 14  1  0
 14 15  1  0
 15 16  1  0
 16 17  2  0
 17 18  1  0
 18 19  2  0
 19 20  1  0
 20 21  2  0
 21 22  1  0
 22 23  2  0
 14 24  1  0
 24 25  2  0
 25 26  1  0
 26 27  2  0
 27 28  1  0
 28 29  1  0
 27 30  1  0
 30 31  1  0
 31 32  1  0
 30 33  2  0
  9 34  1  0
 34 35  2  0
 35 36  1  0
 36 37  2  0
 37 38  1  0
 38 39  2  0
 37 40  1  0
 40 41  1  0
 40 42  1  0
 40 43  1  0
 23  8  1  0
 16 10  1  0
 23 18  1  0
 33 24  1  0
 39 34  1  0
  1 44  1  0
  1 45  1  0
  1 46  1  0
  2 47  1  0
  2 48  1  0
  3 49  1  0
  3 50  1  0
  4 51  1  0
  4 52  1  0
  5 53  1  0
  5 54  1  0
  9 55  1  0
 12 56  1  0
 13 57  1  0
 13 58  1  0
 14 59  1  0
 15 60  1  0
 15 61  1  0
 19 62  1  0
 20 63  1  0
 21 64  1  0
 22 65  1  0
 25 66  1  0
 26 67  1  0
 29 68  1  0
 29 69  1  0
 29 70  1  0
 32 71  1  0
 32 72  1  0
 32 73  1  0
 33 74  1  0
 35 75  1  0
 36 76  1  0
 38 77  1  0
 39 78  1  0
M  END
>  <Batch_No>  (18) 
STL043528

>  <EC50_nM>  (18) 
237

>  <Set>  (18) 
Probe-like

>  <Molecular_Weight>  (18) 
592.6479

>  <ALogP>  (18) 
7.336

$$$$
MMV008416
     RDKit          3D

 37 38  0  0  0  0  0  0  0  0999 V2000
   -4.0047   -1.2145    0.0477 C   0  0  0  0  0  0  0  0  0  0  0  0
   -2.5895   -0.7956    0.4795 C   0  0  0  0  0  0  0  0  0  0  0  0
   -1.7979   -0.5675   -0.7804 C   0  0  0  0  0  0  0  0  0  0  0  0
   -0.4254   -0.1435   -0.4969 C   0  0  0  0  0  0  0  0  0  0  0  0
   -0.0667    1.1957   -0.3533 C   0  0  0  0  0  0  0  0  0  0  0  0
   -1.0157    2.3109   -0.5437 C   0  0  0  0  0  0  0  0  0  0  0  0
   -1.9149    2.6274    0.5953 C   0  0  0  0  0  0  0  0  0  0  0  0
    1.2672    1.5408   -0.0462 C   0  0  0  0  0  0  0  0  0  0  0  0
    1.5093    2.7761    0.0672 N   0  0  0  0  0  0  0  0  0  0  0  0
    2.2241    0.5628    0.1121 C   0  0  0  0  0  0  0  0  0  0  0  0
    3.5265    0.8962    0.3994 C   0  0  0  0  0  0  0  0  0  0  0  0
    4.4726   -0.1084    0.5400 C   0  0  0  0  0  0  0  0  0  0  0  0
    4.1139   -1.4310    0.3935 C   0  0  0  0  0  0  0  0  0  0  0  0
    2.8006   -1.7316    0.1076 C   0  0  0  0  0  0  0  0  0  0  0  0
    1.8241   -0.7399   -0.0397 C   0  0  0  0  0  0  0  0  0  0  0  0
    0.5318   -1.0837   -0.3359 N   0  0  0  0  0  0  0  0  0  0  0  0
    0.2944   -2.5077   -0.4316 C   0  0  0  0  0  0  0  0  0  0  0  0
   -4.2051   -0.9883   -1.0094 H   0  0  0  0  0  0  0  0  0  0  0  0
   -4.7776   -0.6776    0.6428 H   0  0  0  0  0  0  0  0  0  0  0  0
   -4.1618   -2.2875    0.2276 H   0  0  0  0  0  0  0  0  0  0  0  0
   -2.1495   -1.6239    1.0906 H   0  0  0  0  0  0  0  0  0  0  0  0
   -2.6315    0.0638    1.1447 H   0  0  0  0  0  0  0  0  0  0  0  0
   -2.3798    0.2454   -1.3099 H   0  0  0  0  0  0  0  0  0  0  0  0
   -1.9070   -1.4286   -1.4550 H   0  0  0  0  0  0  0  0  0  0  0  0
   -1.6638    2.1572   -1.4426 H   0  0  0  0  0  0  0  0  0  0  0  0
   -0.4048    3.2121   -0.8572 H   0  0  0  0  0  0  0  0  0  0  0  0
   -1.5811    2.1840    1.5586 H   0  0  0  0  0  0  0  0  0  0  0  0
   -2.9870    2.3394    0.3884 H   0  0  0  0  0  0  0  0  0  0  0  0
   -1.9407    3.7246    0.7589 H   0  0  0  0  0  0  0  0  0  0  0  0
    2.4137    3.1729    0.2810 H   0  0  0  0  0  0  0  0  0  0  0  0
    3.8680    1.9081    0.5232 H   0  0  0  0  0  0  0  0  0  0  0  0
    5.4883    0.1036    0.7626 H   0  0  0  0  0  0  0  0  0  0  0  0
    4.8481   -2.2239    0.4981 H   0  0  0  0  0  0  0  0  0  0  0  0
    2.5602   -2.7832   -0.0010 H   0  0  0  0  0  0  0  0  0  0  0  0
    0.6119   -3.0306    0.4997 H   0  0  0  0  0  0  0  0  0  0  0  0
   -0.7166   -2.7941   -0.7481 H   0  0  0  0  0  0  0  0  0  0  0  0
    0.9666   -2.8597   -1.2674 H   0  0  0  0  0  0  0  0  0  0  0  0
  1  2  1  0
  2  3  1  0
  3  4  1  0
  4  5  2  0
  5  6  1  0
  6  7  1  0
  5  8  1  0
  8  9  2  3
  8 10  1  0
 10 11  2  0
 11 12  1  0
 12 13  2  0
 13 14  1  0
 14 15  2  0
 15 16  1  0
 16 17  1  0
 16  4  1  0
 15 10  1  0
  1 18  1  0
  1 19  1  0
  1 20  1  0
  2 21  1  0
  2 22  1  0
  3 23  1  0
  3 24  1  0
  6 25  1  0
  6 26  1  0
  7 27  1  0
  7 28  1  0
  7 29  1  0
  9 30  1  0
 11 31  1  0
 12 32  1  0
 13 33  1  0
 14 34  1  0
 17 35  1  0
 17 36  1  0
 17 37  1  0
M  END
>  <Batch_No>  (19) 
STK007737

>  <EC50_nM>  (19) 
242.5

>  <Set>  (19) 
Probe-like

>  <Molecular_Weight>  (19) 
228.3327

>  <ALogP>  (19) 
4.017

$$$$
MMV665874
     RDKit          3D

 34 36  0  0  0  0  0  0  0  0999 V2000
    2.3602    3.9807    0.2113 C   0  0  0  0  0  0  0  0  0  0  0  0
    2.2173    2.5004    0.2596 C   0  0  0  0  0  0  0  0  0  0  0  0
    1.0799    1.8804    0.7875 C   0  0  0  0  0  0  0  0  0  0  0  0
    1.0306    0.4766    0.7946 C   0  0  0  0  0  0  0  0  0  0  0  0
   -0.0641   -0.2281    1.3336 N   0  0  0  0  0  0  0  0  0  0  0  0
   -1.3346   -0.3991    0.7501 C   0  0  0  0  0  0  0  0  0  0  0  0
   -2.2928    0.5502    1.0365 C   0  0  0  0  0  0  0  0  0  0  0  0
   -3.5837    0.5090    0.5545 C   0  0  0  0  0  0  0  0  0  0  0  0
   -3.9644   -0.5510   -0.2754 C   0  0  0  0  0  0  0  0  0  0  0  0
   -5.3585   -0.6032   -0.7864 C   0  0  0  0  0  0  0  0  0  0  0  0
   -3.0111   -1.5039   -0.5667 C   0  0  0  0  0  0  0  0  0  0  0  0
   -3.5129   -2.8250   -1.6171 Cl  0  0  0  0  0  0  0  0  0  0  0  0
   -1.7054   -1.4368   -0.0627 C   0  0  0  0  0  0  0  0  0  0  0  0
    2.0668   -0.2463    0.2977 N   0  0  0  0  0  0  0  0  0  0  0  0
    2.2428   -1.5612    0.2023 N   0  0  0  0  0  0  0  0  0  0  0  0
    3.4611   -1.7946   -0.3715 C   0  0  0  0  0  0  0  0  0  0  0  0
    4.0189   -0.5744   -0.6215 N   0  0  0  0  0  0  0  0  0  0  0  0
    3.1658    0.3847   -0.2126 C   0  0  0  0  0  0  0  0  0  0  0  0
    3.2024    1.7272   -0.2135 N   0  0  0  0  0  0  0  0  0  0  0  0
    4.0659   -3.1341   -0.6686 C   0  0  0  0  0  0  0  0  0  0  0  0
    3.1202   -4.0879   -0.4132 F   0  0  0  0  0  0  0  0  0  0  0  0
    4.5070   -3.1867   -1.9719 F   0  0  0  0  0  0  0  0  0  0  0  0
    5.1618   -3.2847    0.1930 F   0  0  0  0  0  0  0  0  0  0  0  0
    1.4123    4.5078    0.3157 H   0  0  0  0  0  0  0  0  0  0  0  0
    3.0950    4.2437    1.0222 H   0  0  0  0  0  0  0  0  0  0  0  0
    2.8973    4.2875   -0.7360 H   0  0  0  0  0  0  0  0  0  0  0  0
    0.2551    2.4617    1.1795 H   0  0  0  0  0  0  0  0  0  0  0  0
    0.0956   -0.6758    2.2848 H   0  0  0  0  0  0  0  0  0  0  0  0
   -2.0439    1.4012    1.6886 H   0  0  0  0  0  0  0  0  0  0  0  0
   -4.3264    1.2607    0.7829 H   0  0  0  0  0  0  0  0  0  0  0  0
   -6.0964   -0.4233    0.0238 H   0  0  0  0  0  0  0  0  0  0  0  0
   -5.5850   -1.6262   -1.1712 H   0  0  0  0  0  0  0  0  0  0  0  0
   -5.5823    0.1819   -1.5468 H   0  0  0  0  0  0  0  0  0  0  0  0
   -0.9946   -2.2116   -0.3233 H   0  0  0  0  0  0  0  0  0  0  0  0
  1  2  1  0
  2  3  1  0
  3  4  2  0
  4  5  1  0
  5  6  1  0
  6  7  2  0
  7  8  1  0
  8  9  2  0
  9 10  1  0
  9 11  1  0
 11 12  1  0
 11 13  2  0
  4 14  1  0
 14 15  1  0
 15 16  2  0
 16 17  1  0
 17 18  2  0
 18 19  1  0
 16 20  1  0
 20 21  1  0
 20 22  1  0
 20 23  1  0
 19  2  2  0
 13  6  1  0
 18 14  1  0
  1 24  1  0
  1 25  1  0
  1 26  1  0
  3 27  1  0
  5 28  1  0
  7 29  1  0
  8 30  1  0
 10 31  1  0
 10 32  1  0
 10 33  1  0
 13 34  1  0
M  END
>  <Batch_No>  (20) 
OSSK_722448

>  <EC50_nM>  (20) 
6.71

>  <Set>  (20) 
Drug-like

>  <Molecular_Weight>  (20) 
341.71884

>  <ALogP>  (20) 
4.806

$$$$
MMV006203
     RDKit          3D

 49 52  0  0  0  0  0  0  0  0999 V2000
    1.3730    3.4727   -0.2852 C   0  0  0  0  0  0  0  0  0  0  0  0
    1.6388    2.0184   -0.1377 C   0  0  0  0  0  0  0  0  0  0  0  0
    0.6175    1.0945    0.0612 C   0  0  0  0  0  0  0  0  0  0  0  0
    0.8447   -0.2564    0.1983 C   0  0  0  0  0  0  0  0  0  0  0  0
   -0.1883   -1.1960    0.4280 N   0  0  0  0  0  0  0  0  0  0  0  0
   -1.6035   -0.8360    0.4854 C   0  0  0  0  0  0  0  0  0  0  0  0
   -2.1130   -0.5527   -0.9095 C   0  0  0  0  0  0  0  0  0  0  0  0
   -3.4914   -0.1996   -0.8444 N   0  0  0  0  0  0  0  0  0  0  0  0
   -4.3678   -1.2641   -0.4663 C   0  0  0  0  0  0  0  0  0  0  0  0
   -5.8260   -0.8928   -0.5383 C   0  0  0  0  0  0  0  0  0  0  0  0
   -6.0530    0.3433    0.3434 C   0  0  0  0  0  0  0  0  0  0  0  0
   -5.2187    1.4467   -0.2773 C   0  0  0  0  0  0  0  0  0  0  0  0
   -3.7790    1.0590   -0.2302 C   0  0  0  0  0  0  0  0  0  0  0  0
    2.1816   -0.6563    0.1264 C   0  0  0  0  0  0  0  0  0  0  0  0
    2.5477   -1.9766    0.2482 C   0  0  0  0  0  0  0  0  0  0  0  0
    3.8848   -2.3700    0.1756 C   0  0  0  0  0  0  0  0  0  0  0  0
    4.8803   -1.4353   -0.0218 C   0  0  0  0  0  0  0  0  0  0  0  0
    6.1831   -1.8786   -0.0841 C   0  0  0  0  0  0  0  0  0  0  0  0
    7.1860   -0.9550   -0.2796 C   0  0  0  0  0  0  0  0  0  0  0  0
    6.8579    0.3870   -0.4075 C   0  0  0  0  0  0  0  0  0  0  0  0
    5.5443    0.8344   -0.3446 C   0  0  0  0  0  0  0  0  0  0  0  0
    4.5271   -0.1082   -0.1455 C   0  0  0  0  0  0  0  0  0  0  0  0
    3.2014    0.2545   -0.0705 C   0  0  0  0  0  0  0  0  0  0  0  0
    2.8944    1.5794   -0.1981 N   0  0  0  0  0  0  0  0  0  0  0  0
    1.9111    4.0571    0.5055 H   0  0  0  0  0  0  0  0  0  0  0  0
    1.6506    3.8155   -1.3027 H   0  0  0  0  0  0  0  0  0  0  0  0
    0.2891    3.6266   -0.1180 H   0  0  0  0  0  0  0  0  0  0  0  0
   -0.3757    1.5160    0.1177 H   0  0  0  0  0  0  0  0  0  0  0  0
    0.0092   -2.2079    0.5707 H   0  0  0  0  0  0  0  0  0  0  0  0
   -1.7128    0.0937    1.1085 H   0  0  0  0  0  0  0  0  0  0  0  0
   -2.1891   -1.6044    0.9863 H   0  0  0  0  0  0  0  0  0  0  0  0
   -1.5331    0.2386   -1.4014 H   0  0  0  0  0  0  0  0  0  0  0  0
   -2.0241   -1.4937   -1.5118 H   0  0  0  0  0  0  0  0  0  0  0  0
   -4.2162   -2.1087   -1.1695 H   0  0  0  0  0  0  0  0  0  0  0  0
   -4.1703   -1.6186    0.5453 H   0  0  0  0  0  0  0  0  0  0  0  0
   -6.1125   -0.6060   -1.5555 H   0  0  0  0  0  0  0  0  0  0  0  0
   -6.4139   -1.7675   -0.1758 H   0  0  0  0  0  0  0  0  0  0  0  0
   -7.1401    0.5762    0.3064 H   0  0  0  0  0  0  0  0  0  0  0  0
   -5.7202    0.1762    1.3791 H   0  0  0  0  0  0  0  0  0  0  0  0
   -5.3435    2.3629    0.3403 H   0  0  0  0  0  0  0  0  0  0  0  0
   -5.5558    1.5877   -1.3138 H   0  0  0  0  0  0  0  0  0  0  0  0
   -3.4672    1.0922    0.8485 H   0  0  0  0  0  0  0  0  0  0  0  0
   -3.1903    1.8464   -0.7437 H   0  0  0  0  0  0  0  0  0  0  0  0
    1.8404   -2.7591    0.4019 H   0  0  0  0  0  0  0  0  0  0  0  0
    4.1375   -3.4379    0.2780 H   0  0  0  0  0  0  0  0  0  0  0  0
    6.4012   -2.9268    0.0191 H   0  0  0  0  0  0  0  0  0  0  0  0
    8.2122   -1.3157   -0.3263 H   0  0  0  0  0  0  0  0  0  0  0  0
    7.6866    1.0707   -0.5597 H   0  0  0  0  0  0  0  0  0  0  0  0
    5.3051    1.8741   -0.4453 H   0  0  0  0  0  0  0  0  0  0  0  0
  1  2  1  0
  2  3  2  0
  3  4  1  0
  4  5  1  0
  5  6  1  0
  6  7  1  0
  7  8  1  0
  8  9  1  0
  9 10  1  0
 10 11  1  0
 11 12  1  0
 12 13  1  0
  4 14  2  0
 14 15  1  0
 15 16  2  0
 16 17  1  0
 17 18  2  0
 18 19  1  0
 19 20  2  0
 20 21  1  0
 21 22  2  0
 22 23  1  0
 23 24  2  0
 24  2  1  0
 13  8  1  0
 23 14  1  0
 22 17  1  0
  1 25  1  0
  1 26  1  0
  1 27  1  0
  3 28  1  0
  5 29  1  0
  6 30  1  0
  6 31  1  0
  7 32  1  0
  7 33  1  0
  9 34  1  0
  9 35  1  0
 10 36  1  0
 10 37  1  0
 11 38  1  0
 11 39  1  0
 12 40  1  0
 12 41  1  0
 13 42  1  0
 13 43  1  0
 15 44  1  0
 16 45  1  0
 18 46  1  0
 19 47  1  0
 20 48  1  0
 21 49  1  0
M  END
>  <Batch_No>  (21) 
STK772453

>  <EC50_nM>  (21) 
300

>  <Set>  (21) 
Probe-like

>  <Molecular_Weight>  (21) 
319.4433

>  <ALogP>  (21) 
4.071

$$$$
MMV665977
     RDKit          3D

 62 64  0  0  0  0  0  0  0  0999 V2000
   -8.7464    2.1718    2.1606 C   0  0  0  0  0  0  0  0  0  0  0  0
   -7.8191    2.9693    1.3003 C   0  0  0  0  0  0  0  0  0  0  0  0
   -6.5555    2.4146    1.1029 O   0  0  0  0  0  0  0  0  0  0  0  0
   -6.4040    1.1746    0.5038 C   0  0  0  0  0  0  0  0  0  0  0  0
   -7.4579    0.5792    0.1492 O   0  0  0  0  0  0  0  0  0  0  0  0
   -5.0856    0.5711    0.2868 C   0  0  0  0  0  0  0  0  0  0  0  0
   -5.0113   -0.6625   -0.3099 C   0  0  0  0  0  0  0  0  0  0  0  0
   -3.8374   -1.3005   -0.5501 N   0  0  0  0  0  0  0  0  0  0  0  0
   -3.9255   -2.5966   -1.1735 C   0  0  0  0  0  0  0  0  0  0  0  0
   -3.8525   -2.5066   -2.6959 C   0  0  0  0  0  0  0  0  0  0  0  0
   -2.6891   -0.7063   -0.1920 C   0  0  0  0  0  0  0  0  0  0  0  0
   -1.4999   -1.3147   -0.4191 C   0  0  0  0  0  0  0  0  0  0  0  0
   -0.2631   -0.7569   -0.0746 C   0  0  0  0  0  0  0  0  0  0  0  0
    0.9405   -1.4272   -0.3176 N   0  0  0  0  0  0  0  0  0  0  0  0
    0.8390   -2.6934   -1.0813 C   0  0  0  0  0  0  0  0  0  0  0  0
    2.2525   -1.0480    0.0811 C   0  0  0  0  0  0  0  0  0  0  0  0
    3.0911   -0.6545   -1.1419 C   0  0  0  0  0  0  0  0  0  0  0  0
    4.4462   -0.2681   -0.7421 C   0  0  0  0  0  0  0  0  0  0  0  0
    5.4107   -1.2638   -0.6893 C   0  0  0  0  0  0  0  0  0  0  0  0
    6.7180   -1.0234   -0.3291 C   0  0  0  0  0  0  0  0  0  0  0  0
    7.0699    0.2914   -0.0055 C   0  0  0  0  0  0  0  0  0  0  0  0
    8.3894    0.5742    0.3651 O   0  0  0  0  0  0  0  0  0  0  0  0
    9.2942   -0.5264    0.3852 C   0  0  0  0  0  0  0  0  0  0  0  0
    6.1170    1.3150   -0.0504 C   0  0  0  0  0  0  0  0  0  0  0  0
    6.5677    2.5728    0.2874 O   0  0  0  0  0  0  0  0  0  0  0  0
    5.7200    3.6973    0.2892 C   0  0  0  0  0  0  0  0  0  0  0  0
    4.8104    1.0427   -0.4161 C   0  0  0  0  0  0  0  0  0  0  0  0
   -0.3541    0.4960    0.5306 C   0  0  0  0  0  0  0  0  0  0  0  0
    0.7593    1.1565    0.9091 F   0  0  0  0  0  0  0  0  0  0  0  0
   -1.5626    1.1186    0.7631 C   0  0  0  0  0  0  0  0  0  0  0  0
   -2.7407    0.5151    0.4001 C   0  0  0  0  0  0  0  0  0  0  0  0
   -3.9116    1.1933    0.6605 C   0  0  0  0  0  0  0  0  0  0  0  0
   -3.9411    2.3201    1.2079 O   0  0  0  0  0  0  0  0  0  0  0  0
   -9.7150    2.7491    2.1875 H   0  0  0  0  0  0  0  0  0  0  0  0
   -9.0178    1.1816    1.7743 H   0  0  0  0  0  0  0  0  0  0  0  0
   -8.4274    2.1644    3.2388 H   0  0  0  0  0  0  0  0  0  0  0  0
   -8.2990    3.0419    0.2892 H   0  0  0  0  0  0  0  0  0  0  0  0
   -7.7981    3.9953    1.6869 H   0  0  0  0  0  0  0  0  0  0  0  0
   -5.9588   -1.1425   -0.6007 H   0  0  0  0  0  0  0  0  0  0  0  0
   -3.1464   -3.3151   -0.8652 H   0  0  0  0  0  0  0  0  0  0  0  0
   -4.8880   -3.1038   -0.8981 H   0  0  0  0  0  0  0  0  0  0  0  0
   -3.6049   -3.5212   -3.0604 H   0  0  0  0  0  0  0  0  0  0  0  0
   -4.8188   -2.1753   -3.1251 H   0  0  0  0  0  0  0  0  0  0  0  0
   -3.0710   -1.7582   -2.9386 H   0  0  0  0  0  0  0  0  0  0  0  0
   -1.4685   -2.2753   -0.8902 H   0  0  0  0  0  0  0  0  0  0  0  0
    1.8176   -3.0677   -1.3982 H   0  0  0  0  0  0  0  0  0  0  0  0
    0.3223   -3.4764   -0.5139 H   0  0  0  0  0  0  0  0  0  0  0  0
    0.2872   -2.3975   -2.0132 H   0  0  0  0  0  0  0  0  0  0  0  0
    2.7889   -1.9891    0.4437 H   0  0  0  0  0  0  0  0  0  0  0  0
    2.3601   -0.3697    0.9228 H   0  0  0  0  0  0  0  0  0  0  0  0
    2.5928    0.1339   -1.7311 H   0  0  0  0  0  0  0  0  0  0  0  0
    3.1164   -1.5485   -1.7979 H   0  0  0  0  0  0  0  0  0  0  0  0
    5.1518   -2.2989   -0.9401 H   0  0  0  0  0  0  0  0  0  0  0  0
    7.4392   -1.8250   -0.2992 H   0  0  0  0  0  0  0  0  0  0  0  0
    9.0423   -1.2729    1.1493 H   0  0  0  0  0  0  0  0  0  0  0  0
   10.3298   -0.1175    0.5121 H   0  0  0  0  0  0  0  0  0  0  0  0
    9.2828   -1.0106   -0.6289 H   0  0  0  0  0  0  0  0  0  0  0  0
    5.1587    3.7749    1.2426 H   0  0  0  0  0  0  0  0  0  0  0  0
    4.9722    3.6435   -0.5250 H   0  0  0  0  0  0  0  0  0  0  0  0
    6.2903    4.6430    0.1210 H   0  0  0  0  0  0  0  0  0  0  0  0
    4.0766    1.8228   -0.4517 H   0  0  0  0  0  0  0  0  0  0  0  0
   -1.5842    2.0900    1.2356 H   0  0  0  0  0  0  0  0  0  0  0  0
  1  2  1  0
  2  3  1  0
  3  4  1  0
  4  5  2  0
  4  6  1  0
  6  7  2  0
  7  8  1  0
  8  9  1  0
  9 10  1  0
  8 11  1  0
 11 12  2  0
 12 13  1  0
 13 14  1  0
 14 15  1  0
 14 16  1  0
 16 17  1  0
 17 18  1  0
 18 19  2  0
 19 20  1  0
 20 21  2  0
 21 22  1  0
 22 23  1  0
 21 24  1  0
 24 25  1  0
 25 26  1  0
 24 27  2  0
 13 28  2  0
 28 29  1  0
 28 30  1  0
 30 31  2  0
 31 32  1  0
 32 33  2  0
 32  6  1  0
 31 11  1  0
 27 18  1  0
  1 34  1  0
  1 35  1  0
  1 36  1  0
  2 37  1  0
  2 38  1  0
  7 39  1  0
  9 40  1  0
  9 41  1  0
 10 42  1  0
 10 43  1  0
 10 44  1  0
 12 45  1  0
 15 46  1  0
 15 47  1  0
 15 48  1  0
 16 49  1  0
 16 50  1  0
 17 51  1  0
 17 52  1  0
 19 53  1  0
 20 54  1  0
 23 55  1  0
 23 56  1  0
 23 57  1  0
 26 58  1  0
 26 59  1  0
 26 60  1  0
 27 61  1  0
 30 62  1  0
M  END
>  <Batch_No>  (22) 
5846950

>  <EC50_nM>  (22) 
205

>  <Set>  (22) 
Probe-like

>  <Molecular_Weight>  (22) 
456.50656

>  <ALogP>  (22) 
4.319

$$$$
MMV020549
     RDKit          3D

 56 60  0  0  0  0  0  0  0  0999 V2000
   -8.0270   -1.1449    1.0627 C   0  0  0  0  0  0  0  0  0  0  0  0
   -6.8709   -0.1827    1.2701 C   0  0  0  0  0  0  0  0  0  0  0  0
   -7.1594    1.1552    0.6882 C   0  0  0  0  0  0  0  0  0  0  0  0
   -6.2029    1.6231   -0.3559 C   0  0  0  0  0  0  0  0  0  0  0  0
   -4.8855    1.1592   -0.2679 N   0  0  0  0  0  0  0  0  0  0  0  0
   -3.8507    1.9850   -0.7739 C   0  0  0  0  0  0  0  0  0  0  0  0
   -2.5574    1.2686   -0.5614 C   0  0  0  0  0  0  0  0  0  0  0  0
   -1.8801    1.4880    0.6310 C   0  0  0  0  0  0  0  0  0  0  0  0
   -0.6817    0.8736    0.9177 C   0  0  0  0  0  0  0  0  0  0  0  0
   -0.1660    0.0180   -0.0337 C   0  0  0  0  0  0  0  0  0  0  0  0
    1.0890   -0.6164    0.2828 N   0  0  0  0  0  0  0  0  0  0  0  0
    2.2543    0.1046   -0.1275 C   0  0  0  0  0  0  0  0  0  0  0  0
    2.0442    1.2018   -0.7132 O   0  0  0  0  0  0  0  0  0  0  0  0
    3.5863   -0.4124    0.1243 C   0  0  0  0  0  0  0  0  0  0  0  0
    3.9853   -1.5804    0.7446 C   0  0  0  0  0  0  0  0  0  0  0  0
    5.3767   -1.6418    0.7502 C   0  0  0  0  0  0  0  0  0  0  0  0
    6.2799   -2.5548    1.2234 C   0  0  0  0  0  0  0  0  0  0  0  0
    7.6267   -2.2786    1.0482 C   0  0  0  0  0  0  0  0  0  0  0  0
    8.0519   -1.1134    0.4132 C   0  0  0  0  0  0  0  0  0  0  0  0
    9.4165   -0.8677    0.2541 C   0  0  0  0  0  0  0  0  0  0  0  0
    9.8341    0.2993   -0.3817 C   0  0  0  0  0  0  0  0  0  0  0  0
    8.8768    1.2044   -0.8496 C   0  0  0  0  0  0  0  0  0  0  0  0
    7.5584    0.9286   -0.6752 N   0  0  0  0  0  0  0  0  0  0  0  0
    7.1373   -0.1944   -0.0630 C   0  0  0  0  0  0  0  0  0  0  0  0
    5.7982   -0.4885    0.1216 C   0  0  0  0  0  0  0  0  0  0  0  0
    4.7115    0.2266   -0.2415 N   0  0  0  0  0  0  0  0  0  0  0  0
   -0.8223   -0.2124   -1.2214 C   0  0  0  0  0  0  0  0  0  0  0  0
   -2.0292    0.4055   -1.5118 C   0  0  0  0  0  0  0  0  0  0  0  0
   -4.5475    0.1702    0.6749 C   0  0  0  0  0  0  0  0  0  0  0  0
   -5.6557   -0.8584    0.6905 C   0  0  0  0  0  0  0  0  0  0  0  0
   -8.0818   -1.9345    1.8385 H   0  0  0  0  0  0  0  0  0  0  0  0
   -8.9579   -0.5136    1.1265 H   0  0  0  0  0  0  0  0  0  0  0  0
   -7.9372   -1.5556    0.0343 H   0  0  0  0  0  0  0  0  0  0  0  0
   -6.7202   -0.1362    2.3664 H   0  0  0  0  0  0  0  0  0  0  0  0
   -7.2011    1.8955    1.5159 H   0  0  0  0  0  0  0  0  0  0  0  0
   -8.2013    1.1409    0.2861 H   0  0  0  0  0  0  0  0  0  0  0  0
   -6.1601    2.7527   -0.3418 H   0  0  0  0  0  0  0  0  0  0  0  0
   -6.6192    1.3683   -1.3541 H   0  0  0  0  0  0  0  0  0  0  0  0
   -3.7614    2.9704   -0.2862 H   0  0  0  0  0  0  0  0  0  0  0  0
   -3.9127    2.1285   -1.8928 H   0  0  0  0  0  0  0  0  0  0  0  0
   -2.2832    2.1611    1.3826 H   0  0  0  0  0  0  0  0  0  0  0  0
   -0.1593    1.0544    1.8586 H   0  0  0  0  0  0  0  0  0  0  0  0
    1.1506   -1.5270    0.7710 H   0  0  0  0  0  0  0  0  0  0  0  0
    3.2966   -2.3218    1.1569 H   0  0  0  0  0  0  0  0  0  0  0  0
    5.9314   -3.4597    1.7169 H   0  0  0  0  0  0  0  0  0  0  0  0
    8.3770   -2.9467    1.3927 H   0  0  0  0  0  0  0  0  0  0  0  0
   10.1548   -1.5615    0.6127 H   0  0  0  0  0  0  0  0  0  0  0  0
   10.9054    0.4961   -0.5087 H   0  0  0  0  0  0  0  0  0  0  0  0
    9.1896    2.1161   -1.3461 H   0  0  0  0  0  0  0  0  0  0  0  0
    4.7470    1.1600   -0.7442 H   0  0  0  0  0  0  0  0  0  0  0  0
   -0.3608   -0.8992   -1.9296 H   0  0  0  0  0  0  0  0  0  0  0  0
   -2.5539    0.2352   -2.4362 H   0  0  0  0  0  0  0  0  0  0  0  0
   -4.3852    0.6193    1.6657 H   0  0  0  0  0  0  0  0  0  0  0  0
   -3.5995   -0.3352    0.3508 H   0  0  0  0  0  0  0  0  0  0  0  0
   -5.3480   -1.6601    1.3937 H   0  0  0  0  0  0  0  0  0  0  0  0
   -5.8004   -1.2125   -0.3475 H   0  0  0  0  0  0  0  0  0  0  0  0
  1  2  1  0
  2  3  1  0
  3  4  1  0
  4  5  1  0
  5  6  1  0
  6  7  1  0
  7  8  2  0
  8  9  1  0
  9 10  2  0
 10 11  1  0
 11 12  1  0
 12 13  2  0
 12 14  1  0
 14 15  2  0
 15 16  1  0
 16 17  2  0
 17 18  1  0
 18 19  2  0
 19 20  1  0
 20 21  2  0
 21 22  1  0
 22 23  2  0
 23 24  1  0
 24 25  2  0
 25 26  1  0
 10 27  1  0
 27 28  2  0
  5 29  1  0
 29 30  1  0
 30  2  1  0
 28  7  1  0
 26 14  1  0
 25 16  1  0
 24 19  1  0
  1 31  1  0
  1 32  1  0
  1 33  1  0
  2 34  1  0
  3 35  1  0
  3 36  1  0
  4 37  1  0
  4 38  1  0
  6 39  1  0
  6 40  1  0
  8 41  1  0
  9 42  1  0
 11 43  1  0
 15 44  1  0
 17 45  1  0
 18 46  1  0
 20 47  1  0
 21 48  1  0
 22 49  1  0
 26 50  1  0
 27 51  1  0
 28 52  1  0
 29 53  1  0
 29 54  1  0
 30 55  1  0
 30 56  1  0
M  END
>  <Batch_No>  (23) 
E950-0299

>  <EC50_nM>  (23) 
274

>  <Set>  (23) 
Drug-like

>  <Molecular_Weight>  (23) 
398.50014

>  <ALogP>  (23) 
4.628

$$$$
MMV001246
     RDKit          3D

 35 37  0  0  0  0  0  0  0  0999 V2000
   -4.3804    2.6179    0.5231 C   0  0  0  0  0  0  0  0  0  0  0  0
   -3.5535    1.4049    1.5946 S   0  0  0  0  0  0  0  0  0  0  0  0
   -3.8770   -0.2111    0.8803 C   0  0  0  0  0  0  0  0  0  0  0  0
   -5.0361   -0.8843    1.2886 C   0  0  0  0  0  0  0  0  0  0  0  0
   -5.2924   -2.1172    0.7312 C   0  0  0  0  0  0  0  0  0  0  0  0
   -4.4343   -2.6681   -0.1943 C   0  0  0  0  0  0  0  0  0  0  0  0
   -3.3054   -2.0106   -0.5902 C   0  0  0  0  0  0  0  0  0  0  0  0
   -3.0187   -0.7768   -0.0561 C   0  0  0  0  0  0  0  0  0  0  0  0
   -1.7994   -0.0868   -0.4504 C   0  0  0  0  0  0  0  0  0  0  0  0
   -1.7819    0.9944   -1.1061 O   0  0  0  0  0  0  0  0  0  0  0  0
   -0.5492   -0.7104   -0.0357 N   0  0  0  0  0  0  0  0  0  0  0  0
    0.6576   -0.0849   -0.3774 C   0  0  0  0  0  0  0  0  0  0  0  0
    1.9088   -0.1744   -0.1232 N   0  0  0  0  0  0  0  0  0  0  0  0
    2.8527    0.5535   -0.6439 C   0  0  0  0  0  0  0  0  0  0  0  0
    2.4844    1.4980   -1.5460 C   0  0  0  0  0  0  0  0  0  0  0  0
    0.6985    1.3296   -1.6419 S   0  0  0  0  0  0  0  0  0  0  0  0
    4.2828    0.3898   -0.2355 C   0  0  0  0  0  0  0  0  0  0  0  0
    4.6393   -0.5307    0.7292 C   0  0  0  0  0  0  0  0  0  0  0  0
    5.9534   -0.6346    1.1383 C   0  0  0  0  0  0  0  0  0  0  0  0
    6.8676    0.2109    0.5463 C   0  0  0  0  0  0  0  0  0  0  0  0
    6.4875    1.1179   -0.4115 C   0  0  0  0  0  0  0  0  0  0  0  0
    5.1869    1.1965   -0.7940 N   0  0  0  0  0  0  0  0  0  0  0  0
   -3.9862    2.4394   -0.4939 H   0  0  0  0  0  0  0  0  0  0  0  0
   -5.4710    2.4730    0.4501 H   0  0  0  0  0  0  0  0  0  0  0  0
   -4.1996    3.6576    0.8707 H   0  0  0  0  0  0  0  0  0  0  0  0
   -5.6614   -0.4009    2.0235 H   0  0  0  0  0  0  0  0  0  0  0  0
   -6.1613   -2.6659    1.0081 H   0  0  0  0  0  0  0  0  0  0  0  0
   -4.6980   -3.6593   -0.6128 H   0  0  0  0  0  0  0  0  0  0  0  0
   -2.6123   -2.4064   -1.3062 H   0  0  0  0  0  0  0  0  0  0  0  0
   -0.5063   -1.5921    0.5021 H   0  0  0  0  0  0  0  0  0  0  0  0
    3.0932    2.2628   -2.1497 H   0  0  0  0  0  0  0  0  0  0  0  0
    3.8448   -1.1409    1.1430 H   0  0  0  0  0  0  0  0  0  0  0  0
    6.2354   -1.3581    1.8966 H   0  0  0  0  0  0  0  0  0  0  0  0
    7.9042    0.1923    0.8196 H   0  0  0  0  0  0  0  0  0  0  0  0
    7.2273    1.7752   -0.8608 H   0  0  0  0  0  0  0  0  0  0  0  0
  1  2  1  0
  2  3  1  0
  3  4  2  0
  4  5  1  0
  5  6  2  0
  6  7  1  0
  7  8  2  0
  8  9  1  0
  9 10  2  0
  9 11  1  0
 11 12  1  0
 12 13  2  0
 13 14  1  0
 14 15  2  0
 15 16  1  0
 14 17  1  0
 17 18  2  0
 18 19  1  0
 19 20  2  0
 20 21  1  0
 21 22  2  0
  8  3  1  0
 16 12  1  0
 22 17  1  0
  1 23  1  0
  1 24  1  0
  1 25  1  0
  4 26  1  0
  5 27  1  0
  6 28  1  0
  7 29  1  0
 11 30  1  0
 15 31  1  0
 18 32  1  0
 19 33  1  0
 20 34  1  0
 21 35  1  0
M  END
>  <Batch_No>  (24) 
G786-1388

>  <EC50_nM>  (24) 
206

>  <Set>  (24) 
Drug-like

>  <Molecular_Weight>  (24) 
327.42392

>  <ALogP>  (24) 
3.378

$$$$
MMV666607
     RDKit          3D

 32 34  0  0  0  0  0  0  0  0999 V2000
    7.4319   -1.3709   -1.0397 O   0  0  0  0  0  0  0  0  0  0  0  0
    6.3374   -0.7388   -1.5804 N   0  0  0  0  0  0  0  0  0  0  0  0
    6.4285   -0.3358   -2.7427 O   0  0  0  0  0  0  0  0  0  0  0  0
    5.1343   -0.5497   -0.8345 C   0  0  0  0  0  0  0  0  0  0  0  0
    5.0230   -0.9938    0.4575 C   0  0  0  0  0  0  0  0  0  0  0  0
    3.8432   -0.7959    1.1556 C   0  0  0  0  0  0  0  0  0  0  0  0
    2.7671   -0.1649    0.5990 C   0  0  0  0  0  0  0  0  0  0  0  0
    1.5073    0.0507    1.3330 C   0  0  0  0  0  0  0  0  0  0  0  0
    0.5143    0.6482    0.7789 N   0  0  0  0  0  0  0  0  0  0  0  0
   -0.7020    0.8854    1.4109 N   0  0  0  0  0  0  0  0  0  0  0  0
   -1.9661    0.6772    0.7898 C   0  0  0  0  0  0  0  0  0  0  0  0
   -3.1856    0.8931    1.3618 N   0  0  0  0  0  0  0  0  0  0  0  0
   -4.1497    0.5875    0.4756 C   0  0  0  0  0  0  0  0  0  0  0  0
   -5.5122    0.6578    0.6344 C   0  0  0  0  0  0  0  0  0  0  0  0
   -6.2947    0.2819   -0.4445 C   0  0  0  0  0  0  0  0  0  0  0  0
   -5.6941   -0.1462   -1.6306 C   0  0  0  0  0  0  0  0  0  0  0  0
   -4.3167   -0.2056   -1.7582 C   0  0  0  0  0  0  0  0  0  0  0  0
   -3.5332    0.1684   -0.6847 C   0  0  0  0  0  0  0  0  0  0  0  0
   -2.1911    0.2344   -0.4611 N   0  0  0  0  0  0  0  0  0  0  0  0
    2.8853    0.2830   -0.7104 C   0  0  0  0  0  0  0  0  0  0  0  0
    4.0574    0.0898   -1.4131 C   0  0  0  0  0  0  0  0  0  0  0  0
    5.8604   -1.4885    0.9004 H   0  0  0  0  0  0  0  0  0  0  0  0
    3.7957   -1.1630    2.1777 H   0  0  0  0  0  0  0  0  0  0  0  0
    1.4645   -0.3151    2.3468 H   0  0  0  0  0  0  0  0  0  0  0  0
   -0.6679    1.2333    2.3897 H   0  0  0  0  0  0  0  0  0  0  0  0
   -5.9503    0.9969    1.5749 H   0  0  0  0  0  0  0  0  0  0  0  0
   -7.3708    0.3333   -0.3307 H   0  0  0  0  0  0  0  0  0  0  0  0
   -6.3586   -0.4343   -2.4591 H   0  0  0  0  0  0  0  0  0  0  0  0
   -3.8501   -0.5393   -2.6828 H   0  0  0  0  0  0  0  0  0  0  0  0
   -1.4525   -0.0193   -1.1531 H   0  0  0  0  0  0  0  0  0  0  0  0
    2.0591    0.7817   -1.1756 H   0  0  0  0  0  0  0  0  0  0  0  0
    4.0864    0.4585   -2.4202 H   0  0  0  0  0  0  0  0  0  0  0  0
  1  2  1  0
  2  3  2  0
  2  4  1  0
  4  5  2  0
  5  6  1  0
  6  7  2  0
  7  8  1  0
  8  9  2  3
  9 10  1  0
 10 11  1  0
 11 12  2  0
 12 13  1  0
 13 14  2  0
 14 15  1  0
 15 16  2  0
 16 17  1  0
 17 18  2  0
 18 19  1  0
  7 20  1  0
 20 21  2  0
 21  4  1  0
 19 11  1  0
 18 13  1  0
  5 22  1  0
  6 23  1  0
  8 24  1  0
 10 25  1  0
 14 26  1  0
 15 27  1  0
 16 28  1  0
 17 29  1  0
 19 30  1  0
 20 31  1  0
 21 32  1  0
M  CHG  2   1  -1   2   1
M  END
>  <Batch_No>  (25) 
K060-0030

>  <EC50_nM>  (25) 
142

>  <Set>  (25) 
Probe-like

>  <Molecular_Weight>  (25) 
281.26944

>  <ALogP>  (25) 
2.763

$$$$
MMV665915
     RDKit          3D

 45 47  0  0  0  0  0  0  0  0999 V2000
    6.3792    3.4667   -0.3723 C   0  0  0  0  0  0  0  0  0  0  0  0
    5.3594    2.9961    0.4890 O   0  0  0  0  0  0  0  0  0  0  0  0
    4.4760    1.9793    0.1591 C   0  0  0  0  0  0  0  0  0  0  0  0
    4.4690    1.3043   -1.0216 C   0  0  0  0  0  0  0  0  0  0  0  0
    3.5605    0.2989   -1.2898 C   0  0  0  0  0  0  0  0  0  0  0  0
    2.6161   -0.0559   -0.3491 C   0  0  0  0  0  0  0  0  0  0  0  0
    2.6346    0.6360    0.8425 C   0  0  0  0  0  0  0  0  0  0  0  0
    3.5379    1.6360    1.1096 C   0  0  0  0  0  0  0  0  0  0  0  0
    1.6296   -1.1321   -0.6105 C   0  0  0  0  0  0  0  0  0  0  0  0
    0.3493   -1.0049   -0.3247 N   0  0  0  0  0  0  0  0  0  0  0  0
   -0.5150   -1.7392   -0.4686 C   0  0  0  0  0  0  0  0  0  0  0  0
   -1.9325   -1.9398   -0.2923 N   0  0  0  0  0  0  0  0  0  0  0  0
   -2.4543   -2.5010    0.9137 C   0  0  0  0  0  0  0  0  0  0  0  0
   -1.6246   -2.8075    1.8030 O   0  0  0  0  0  0  0  0  0  0  0  0
   -3.9053   -2.7146    1.1137 C   0  0  0  0  0  0  0  0  0  0  0  0
   -4.7158   -1.3243    1.8446 S   0  0  0  0  0  0  0  0  0  0  0  0
   -4.1658   -1.1586    3.2326 O   0  0  0  0  0  0  0  0  0  0  0  0
   -6.1680   -1.6758    1.9719 O   0  0  0  0  0  0  0  0  0  0  0  0
   -4.5887    0.1180    0.9027 C   0  0  0  0  0  0  0  0  0  0  0  0
   -5.5517    0.4105   -0.0533 C   0  0  0  0  0  0  0  0  0  0  0  0
   -5.4607    1.5712   -0.8201 C   0  0  0  0  0  0  0  0  0  0  0  0
   -4.4115    2.4593   -0.6488 C   0  0  0  0  0  0  0  0  0  0  0  0
   -4.3495    3.5807   -1.4097 F   0  0  0  0  0  0  0  0  0  0  0  0
   -3.4453    2.1743    0.3044 C   0  0  0  0  0  0  0  0  0  0  0  0
   -3.5580    1.0245    1.0464 C   0  0  0  0  0  0  0  0  0  0  0  0
    0.4569   -3.2078   -1.2490 S   0  0  0  0  0  0  0  0  0  0  0  0
    1.9645   -2.3147   -1.1573 C   0  0  0  0  0  0  0  0  0  0  0  0
    3.3348   -2.8179   -1.6138 C   0  0  0  0  0  0  0  0  0  0  0  0
    6.0997    3.3430   -1.4321 H   0  0  0  0  0  0  0  0  0  0  0  0
    6.5704    4.5482   -0.2006 H   0  0  0  0  0  0  0  0  0  0  0  0
    7.3090    2.9052   -0.1028 H   0  0  0  0  0  0  0  0  0  0  0  0
    5.1838    1.5519   -1.7707 H   0  0  0  0  0  0  0  0  0  0  0  0
    3.6067   -0.1974   -2.2433 H   0  0  0  0  0  0  0  0  0  0  0  0
    1.8861    0.3479    1.5758 H   0  0  0  0  0  0  0  0  0  0  0  0
    3.5174    2.1618    2.0724 H   0  0  0  0  0  0  0  0  0  0  0  0
   -2.6130   -1.6773   -1.0476 H   0  0  0  0  0  0  0  0  0  0  0  0
   -4.3987   -2.9605    0.1545 H   0  0  0  0  0  0  0  0  0  0  0  0
   -4.0105   -3.5550    1.8322 H   0  0  0  0  0  0  0  0  0  0  0  0
   -6.3813   -0.2720   -0.2031 H   0  0  0  0  0  0  0  0  0  0  0  0
   -6.2420    1.7433   -1.5488 H   0  0  0  0  0  0  0  0  0  0  0  0
   -2.6390    2.8895    0.4124 H   0  0  0  0  0  0  0  0  0  0  0  0
   -2.7927    0.8091    1.7939 H   0  0  0  0  0  0  0  0  0  0  0  0
    3.3701   -3.9238   -1.4849 H   0  0  0  0  0  0  0  0  0  0  0  0
    3.5078   -2.5554   -2.6775 H   0  0  0  0  0  0  0  0  0  0  0  0
    4.1053   -2.4201   -0.9221 H   0  0  0  0  0  0  0  0  0  0  0  0
  1  2  1  0
  2  3  1  0
  3  4  2  0
  4  5  1  0
  5  6  2  0
  6  7  1  0
  7  8  2  0
  6  9  1  0
  9 10  1  0
 10 11  2  0
 11 12  1  0
 12 13  1  0
 13 14  2  0
 13 15  1  0
 15 16  1  0
 16 17  2  0
 16 18  2  0
 16 19  1  0
 19 20  2  0
 20 21  1  0
 21 22  2  0
 22 23  1  0
 22 24  1  0
 24 25  2  0
 11 26  1  0
 26 27  1  0
 27 28  1  0
  8  3  1  0
 27  9  2  0
 25 19  1  0
  1 29  1  0
  1 30  1  0
  1 31  1  0
  4 32  1  0
  5 33  1  0
  7 34  1  0
  8 35  1  0
 12 36  1  0
 15 37  1  0
 15 38  1  0
 20 39  1  0
 21 40  1  0
 24 41  1  0
 25 42  1  0
 28 43  1  0
 28 44  1  0
 28 45  1  0
M  END
>  <Batch_No>  (26) 
F2536-1874

>  <EC50_nM>  (26) 
448

>  <Set>  (26) 
Drug-like

>  <Molecular_Weight>  (26) 
420.47768

>  <ALogP>  (26) 
3.271

$$$$
MMV007695
     RDKit          3D

 85 92  0  0  0  0  0  0  0  0999 V2000
    0.4515   -0.4816   -4.5933 C   0  0  0  0  0  0  0  0  0  0  0  0
    1.0322   -0.3844   -3.2872 O   0  0  0  0  0  0  0  0  0  0  0  0
    2.3644   -0.7230   -3.1322 C   0  0  0  0  0  0  0  0  0  0  0  0
    3.1349   -1.1511   -4.2192 C   0  0  0  0  0  0  0  0  0  0  0  0
    4.4713   -1.4911   -4.0655 C   0  0  0  0  0  0  0  0  0  0  0  0
    5.0660   -1.4093   -2.8154 C   0  0  0  0  0  0  0  0  0  0  0  0
    4.2855   -0.9886   -1.7791 C   0  0  0  0  0  0  0  0  0  0  0  0
    2.9549   -0.6415   -1.8895 C   0  0  0  0  0  0  0  0  0  0  0  0
    2.2498   -0.2152   -0.7206 N   0  0  0  0  0  0  0  0  0  0  0  0
    2.1549    1.1466   -0.2179 C   0  0  0  0  0  0  0  0  0  0  0  0
    2.4936    2.0974   -0.9699 O   0  0  0  0  0  0  0  0  0  0  0  0
    1.6491    1.0831    1.1519 C   0  0  0  0  0  0  0  0  0  0  0  0
    1.5464   -0.4037    1.4912 C   0  0  0  0  0  0  0  0  0  0  0  0
    1.5096   -1.0332    0.1700 C   0  0  0  0  0  0  0  0  0  0  0  0
    0.9170   -2.1270   -0.1336 O   0  0  0  0  0  0  0  0  0  0  0  0
    0.2916   -0.5234    2.2697 C   0  0  0  0  0  0  0  0  0  0  0  0
    0.1944    0.8796    2.8304 C   0  0  0  0  0  0  0  0  0  0  0  0
    0.0487    1.3217    3.9163 O   0  0  0  0  0  0  0  0  0  0  0  0
    0.3491    1.6603    1.4872 C   0  0  0  0  0  0  0  0  0  0  0  0
   -0.8026    0.9385    0.8372 C   0  0  0  0  0  0  0  0  0  0  0  0
   -0.9079   -0.3073    1.3738 C   0  0  0  0  0  0  0  0  0  0  0  0
   -2.0272   -1.1446    1.0390 C   0  0  0  0  0  0  0  0  0  0  0  0
   -2.9103   -1.7049    1.9361 C   0  0  0  0  0  0  0  0  0  0  0  0
   -3.9583   -2.5161    1.5694 C   0  0  0  0  0  0  0  0  0  0  0  0
   -4.1460   -2.7892    0.2515 C   0  0  0  0  0  0  0  0  0  0  0  0
   -5.2979   -3.6735   -0.1122 C   0  0  0  0  0  0  0  0  0  0  0  0
   -3.3022   -2.2630   -0.6966 C   0  0  0  0  0  0  0  0  0  0  0  0
   -2.2539   -1.4497   -0.3108 C   0  0  0  0  0  0  0  0  0  0  0  0
   -1.6661    1.5404   -0.1684 C   0  0  0  0  0  0  0  0  0  0  0  0
   -1.2127    2.2700   -1.2382 C   0  0  0  0  0  0  0  0  0  0  0  0
   -2.0637    2.8521   -2.1742 C   0  0  0  0  0  0  0  0  0  0  0  0
   -3.4300    2.7114   -2.0547 C   0  0  0  0  0  0  0  0  0  0  0  0
   -4.4006    3.3035   -3.0099 C   0  0  0  0  0  0  0  0  0  0  0  0
   -3.9108    1.9822   -0.9872 C   0  0  0  0  0  0  0  0  0  0  0  0
   -3.0472    1.4060   -0.0587 C   0  0  0  0  0  0  0  0  0  0  0  0
    0.1599    3.0580    1.7439 C   0  0  0  0  0  0  0  0  0  0  0  0
    0.9235    4.1224    1.3407 C   0  0  0  0  0  0  0  0  0  0  0  0
    0.6413    5.4399    1.6434 C   0  0  0  0  0  0  0  0  0  0  0  0
   -0.4697    5.7614    2.3983 C   0  0  0  0  0  0  0  0  0  0  0  0
   -1.2572    4.7157    2.8193 C   0  0  0  0  0  0  0  0  0  0  0  0
   -0.9741    3.4106    2.5168 C   0  0  0  0  0  0  0  0  0  0  0  0
    0.2169   -1.5831    3.2205 C   0  0  0  0  0  0  0  0  0  0  0  0
    0.6828   -1.4108    4.5332 C   0  0  0  0  0  0  0  0  0  0  0  0
    0.6710   -2.4365    5.4540 C   0  0  0  0  0  0  0  0  0  0  0  0
    0.2000   -3.6795    5.1245 C   0  0  0  0  0  0  0  0  0  0  0  0
   -0.2591   -3.8831    3.8595 C   0  0  0  0  0  0  0  0  0  0  0  0
   -0.2469   -2.8421    2.9229 C   0  0  0  0  0  0  0  0  0  0  0  0
    6.4638   -1.7470   -2.5807 C   0  0  0  0  0  0  0  0  0  0  0  0
    6.9453   -1.6510   -1.3992 O   0  0  0  0  0  0  0  0  0  0  0  0
    7.3957   -2.2032   -3.6248 C   0  0  0  0  0  0  0  0  0  0  0  0
    0.2954   -1.5430   -4.8998 H   0  0  0  0  0  0  0  0  0  0  0  0
    1.0712    0.0458   -5.3509 H   0  0  0  0  0  0  0  0  0  0  0  0
   -0.5114    0.0684   -4.5385 H   0  0  0  0  0  0  0  0  0  0  0  0
    2.7010   -1.2266   -5.2109 H   0  0  0  0  0  0  0  0  0  0  0  0
    5.0318   -1.8124   -4.9075 H   0  0  0  0  0  0  0  0  0  0  0  0
    4.7347   -0.9202   -0.7994 H   0  0  0  0  0  0  0  0  0  0  0  0
    2.4032    1.4862    1.8622 H   0  0  0  0  0  0  0  0  0  0  0  0
    2.4159   -0.7400    2.1006 H   0  0  0  0  0  0  0  0  0  0  0  0
   -2.7837   -1.4987    2.9754 H   0  0  0  0  0  0  0  0  0  0  0  0
   -4.6238   -2.9316    2.3145 H   0  0  0  0  0  0  0  0  0  0  0  0
   -5.4742   -3.7331   -1.1855 H   0  0  0  0  0  0  0  0  0  0  0  0
   -6.2497   -3.2527    0.3267 H   0  0  0  0  0  0  0  0  0  0  0  0
   -5.1908   -4.6722    0.3457 H   0  0  0  0  0  0  0  0  0  0  0  0
   -3.4650   -2.4910   -1.7555 H   0  0  0  0  0  0  0  0  0  0  0  0
   -1.5764   -1.0245   -1.0446 H   0  0  0  0  0  0  0  0  0  0  0  0
   -0.1728    2.4147   -1.3855 H   0  0  0  0  0  0  0  0  0  0  0  0
   -1.6767    3.4221   -3.0080 H   0  0  0  0  0  0  0  0  0  0  0  0
   -4.6298    4.3236   -2.6276 H   0  0  0  0  0  0  0  0  0  0  0  0
   -5.3638    2.7377   -2.9380 H   0  0  0  0  0  0  0  0  0  0  0  0
   -4.0862    3.2735   -4.0583 H   0  0  0  0  0  0  0  0  0  0  0  0
   -4.9947    1.8616   -0.8788 H   0  0  0  0  0  0  0  0  0  0  0  0
   -3.5272    0.8651    0.7433 H   0  0  0  0  0  0  0  0  0  0  0  0
    1.8002    3.9377    0.7620 H   0  0  0  0  0  0  0  0  0  0  0  0
    1.2751    6.2555    1.3021 H   0  0  0  0  0  0  0  0  0  0  0  0
   -0.7376    6.7711    2.6642 H   0  0  0  0  0  0  0  0  0  0  0  0
   -2.1273    4.9473    3.4093 H   0  0  0  0  0  0  0  0  0  0  0  0
   -1.6457    2.6485    2.8873 H   0  0  0  0  0  0  0  0  0  0  0  0
    1.0787   -0.4670    4.8818 H   0  0  0  0  0  0  0  0  0  0  0  0
    1.0427   -2.2718    6.4772 H   0  0  0  0  0  0  0  0  0  0  0  0
    0.2050   -4.4600    5.8732 H   0  0  0  0  0  0  0  0  0  0  0  0
   -0.6286   -4.8646    3.6075 H   0  0  0  0  0  0  0  0  0  0  0  0
   -0.6031   -3.1335    1.9387 H   0  0  0  0  0  0  0  0  0  0  0  0
    8.1792   -1.3980   -3.7375 H   0  0  0  0  0  0  0  0  0  0  0  0
    6.9564   -2.3901   -4.6008 H   0  0  0  0  0  0  0  0  0  0  0  0
    7.9569   -3.0714   -3.2064 H   0  0  0  0  0  0  0  0  0  0  0  0
  1  2  1  0
  2  3  1  0
  3  4  2  0
  4  5  1  0
  5  6  2  0
  6  7  1  0
  7  8  2  0
  8  9  1  0
  9 10  1  0
 10 11  2  0
 10 12  1  0
 12 13  1  0
 13 14  1  0
 14 15  2  0
 13 16  1  0
 16 17  1  0
 17 18  2  0
 17 19  1  0
 19 20  1  0
 20 21  2  0
 21 22  1  0
 22 23  2  0
 23 24  1  0
 24 25  2  0
 25 26  1  0
 25 27  1  0
 27 28  2  0
 20 29  1  0
 29 30  2  0
 30 31  1  0
 31 32  2  0
 32 33  1  0
 32 34  1  0
 34 35  2  0
 19 36  1  0
 36 37  2  0
 37 38  1  0
 38 39  2  0
 39 40  1  0
 40 41  2  0
 16 42  1  0
 42 43  2  0
 43 44  1  0
 44 45  2  0
 45 46  1  0
 46 47  2  0
  6 48  1  0
 48 49  2  0
 48 50  1  0
  8  3  1  0
 14  9  1  0
 19 12  1  0
 21 16  1  0
 28 22  1  0
 35 29  1  0
 41 36  1  0
 47 42  1  0
  1 51  1  0
  1 52  1  0
  1 53  1  0
  4 54  1  0
  5 55  1  0
  7 56  1  0
 12 57  1  0
 13 58  1  0
 23 59  1  0
 24 60  1  0
 26 61  1  0
 26 62  1  0
 26 63  1  0
 27 64  1  0
 28 65  1  0
 30 66  1  0
 31 67  1  0
 33 68  1  0
 33 69  1  0
 33 70  1  0
 34 71  1  0
 35 72  1  0
 37 73  1  0
 38 74  1  0
 39 75  1  0
 40 76  1  0
 41 77  1  0
 43 78  1  0
 44 79  1  0
 45 80  1  0
 46 81  1  0
 47 82  1  0
 50 83  1  0
 50 84  1  0
 50 85  1  0
M  END
>  <Batch_No>  (27) 
STK266148

>  <EC50_nM>  (27) 
179

>  <Set>  (27) 
Probe-like

>  <Molecular_Weight>  (27) 
657.7524

>  <ALogP>  (27) 
7.237

$$$$
MMV000448
     RDKit          3D

 42 44  0  0  0  0  0  0  0  0999 V2000
    4.8775   -0.8506    1.1687 C   0  0  0  0  0  0  0  0  0  0  0  0
    4.4287   -0.6729   -0.1893 N   0  0  0  0  0  0  0  0  0  0  0  0
    5.4333    0.0190   -0.9853 C   0  0  0  0  0  0  0  0  0  0  0  0
    3.1387   -0.0642   -0.3196 C   0  0  0  0  0  0  0  0  0  0  0  0
    2.0417   -0.9764    0.1904 C   0  0  0  0  0  0  0  0  0  0  0  0
    0.7426   -0.2237   -0.0099 C   0  0  0  0  0  0  0  0  0  0  0  0
   -0.4226   -0.9389    0.4344 N   0  0  0  0  0  0  0  0  0  0  0  0
   -1.6865   -0.2759    0.2414 C   0  0  0  0  0  0  0  0  0  0  0  0
   -2.2350    0.5646    1.1708 C   0  0  0  0  0  0  0  0  0  0  0  0
   -1.5802    0.8152    2.3613 C   0  0  0  0  0  0  0  0  0  0  0  0
   -2.1794    1.6635    3.2451 C   0  0  0  0  0  0  0  0  0  0  0  0
   -3.3939    2.2433    2.9488 C   0  0  0  0  0  0  0  0  0  0  0  0
   -4.0456    1.9921    1.7582 C   0  0  0  0  0  0  0  0  0  0  0  0
   -3.4574    1.1408    0.8565 C   0  0  0  0  0  0  0  0  0  0  0  0
   -4.0838    0.8842   -0.3203 N   0  0  0  0  0  0  0  0  0  0  0  0
   -3.5336    0.0490   -1.2388 C   0  0  0  0  0  0  0  0  0  0  0  0
   -4.2080   -0.1801   -2.4149 C   0  0  0  0  0  0  0  0  0  0  0  0
   -3.6368   -1.0413   -3.3525 C   0  0  0  0  0  0  0  0  0  0  0  0
   -2.4248   -1.6415   -3.0939 C   0  0  0  0  0  0  0  0  0  0  0  0
   -1.7677   -1.3985   -1.9117 C   0  0  0  0  0  0  0  0  0  0  0  0
   -2.3135   -0.5484   -0.9649 C   0  0  0  0  0  0  0  0  0  0  0  0
    5.4500   -1.8271    1.1968 H   0  0  0  0  0  0  0  0  0  0  0  0
    5.6391   -0.0716    1.4586 H   0  0  0  0  0  0  0  0  0  0  0  0
    4.0628   -0.9397    1.8806 H   0  0  0  0  0  0  0  0  0  0  0  0
    5.2760   -0.1364   -2.0586 H   0  0  0  0  0  0  0  0  0  0  0  0
    6.4263   -0.3731   -0.6895 H   0  0  0  0  0  0  0  0  0  0  0  0
    5.4128    1.1185   -0.7716 H   0  0  0  0  0  0  0  0  0  0  0  0
    3.0577    0.9093    0.2135 H   0  0  0  0  0  0  0  0  0  0  0  0
    2.9006    0.1342   -1.3919 H   0  0  0  0  0  0  0  0  0  0  0  0
    2.0231   -1.9236   -0.3925 H   0  0  0  0  0  0  0  0  0  0  0  0
    2.1702   -1.2573    1.2556 H   0  0  0  0  0  0  0  0  0  0  0  0
    0.6768   -0.0190   -1.0964 H   0  0  0  0  0  0  0  0  0  0  0  0
    0.8374    0.7542    0.5035 H   0  0  0  0  0  0  0  0  0  0  0  0
   -0.3868   -1.8914    0.8769 H   0  0  0  0  0  0  0  0  0  0  0  0
   -0.6339    0.3198    2.5054 H   0  0  0  0  0  0  0  0  0  0  0  0
   -1.6841    1.8784    4.1883 H   0  0  0  0  0  0  0  0  0  0  0  0
   -3.8528    2.9076    3.6535 H   0  0  0  0  0  0  0  0  0  0  0  0
   -4.9940    2.4811    1.5923 H   0  0  0  0  0  0  0  0  0  0  0  0
   -5.1484    0.2538   -2.6777 H   0  0  0  0  0  0  0  0  0  0  0  0
   -4.1654   -1.2314   -4.2971 H   0  0  0  0  0  0  0  0  0  0  0  0
   -1.9464   -2.3185   -3.7991 H   0  0  0  0  0  0  0  0  0  0  0  0
   -0.8146   -1.8762   -1.7251 H   0  0  0  0  0  0  0  0  0  0  0  0
  1  2  1  0
  2  3  1  0
  2  4  1  0
  4  5  1  0
  5  6  1  0
  6  7  1  0
  7  8  1  0
  8  9  2  0
  9 10  1  0
 10 11  2  0
 11 12  1  0
 12 13  2  0
 13 14  1  0
 14 15  2  0
 15 16  1  0
 16 17  2  0
 17 18  1  0
 18 19  2  0
 19 20  1  0
 20 21  2  0
 21  8  1  0
 14  9  1  0
 21 16  1  0
  1 22  1  0
  1 23  1  0
  1 24  1  0
  3 25  1  0
  3 26  1  0
  3 27  1  0
  4 28  1  0
  4 29  1  0
  5 30  1  0
  5 31  1  0
  6 32  1  0
  6 33  1  0
  7 34  1  0
 10 35  1  0
 11 36  1  0
 12 37  1  0
 13 38  1  0
 17 39  1  0
 18 40  1  0
 19 41  1  0
 20 42  1  0
M  END
>  <Batch_No>  (28) 
STK589099

>  <EC50_nM>  (28) 
235

>  <Set>  (28) 
Probe-like

>  <Molecular_Weight>  (28) 
279.37944

>  <ALogP>  (28) 
3.363

$$$$
MMV020500
     RDKit          3D

 33 34  0  0  0  0  0  0  0  0999 V2000
    5.0281    0.7931   -0.6749 C   0  0  0  0  0  0  0  0  0  0  0  0
    4.8262   -0.3659    0.1806 N   0  0  0  0  0  0  0  0  0  0  0  0
    3.5473   -0.9851   -0.1296 C   0  0  0  0  0  0  0  0  0  0  0  0
    2.3951   -0.0864    0.2797 C   0  0  0  0  0  0  0  0  0  0  0  0
    1.1083   -0.7648   -0.0588 C   0  0  0  0  0  0  0  0  0  0  0  0
   -0.0106    0.0738    0.3247 N   0  0  0  0  0  0  0  0  0  0  0  0
   -1.3218   -0.4171    0.0701 C   0  0  0  0  0  0  0  0  0  0  0  0
   -1.5123   -1.6533   -0.5253 C   0  0  0  0  0  0  0  0  0  0  0  0
   -2.7664   -2.1693   -0.7920 C   0  0  0  0  0  0  0  0  0  0  0  0
   -3.8539   -1.4256   -0.4524 N   0  0  0  0  0  0  0  0  0  0  0  0
   -3.7360   -0.2265    0.1242 C   0  0  0  0  0  0  0  0  0  0  0  0
   -4.8783    0.4871    0.4491 C   0  0  0  0  0  0  0  0  0  0  0  0
   -4.8033    1.7328    1.0478 C   0  0  0  0  0  0  0  0  0  0  0  0
   -6.2087    2.6690    1.4763 Cl  0  0  0  0  0  0  0  0  0  0  0  0
   -3.5283    2.2217    1.3018 C   0  0  0  0  0  0  0  0  0  0  0  0
   -2.3870    1.5175    0.9813 C   0  0  0  0  0  0  0  0  0  0  0  0
   -2.4677    0.2853    0.3890 C   0  0  0  0  0  0  0  0  0  0  0  0
    4.6663    0.5577   -1.7065 H   0  0  0  0  0  0  0  0  0  0  0  0
    4.4916    1.6834   -0.2384 H   0  0  0  0  0  0  0  0  0  0  0  0
    6.0883    1.0952   -0.7241 H   0  0  0  0  0  0  0  0  0  0  0  0
    5.5648   -1.0450   -0.0395 H   0  0  0  0  0  0  0  0  0  0  0  0
    3.4523   -1.1764   -1.2167 H   0  0  0  0  0  0  0  0  0  0  0  0
    3.4772   -1.9163    0.4757 H   0  0  0  0  0  0  0  0  0  0  0  0
    2.4959    0.9142   -0.1806 H   0  0  0  0  0  0  0  0  0  0  0  0
    2.4146    0.0655    1.3884 H   0  0  0  0  0  0  0  0  0  0  0  0
    1.0044   -1.7060    0.5270 H   0  0  0  0  0  0  0  0  0  0  0  0
    1.0213   -1.0215   -1.1321 H   0  0  0  0  0  0  0  0  0  0  0  0
    0.2051    0.9833    0.7621 H   0  0  0  0  0  0  0  0  0  0  0  0
   -0.6612   -2.2597   -0.8034 H   0  0  0  0  0  0  0  0  0  0  0  0
   -2.9048   -3.1381   -1.2583 H   0  0  0  0  0  0  0  0  0  0  0  0
   -5.8616    0.0969    0.2467 H   0  0  0  0  0  0  0  0  0  0  0  0
   -3.4350    3.2097    1.7775 H   0  0  0  0  0  0  0  0  0  0  0  0
   -1.4497    1.9708    1.2124 H   0  0  0  0  0  0  0  0  0  0  0  0
  1  2  1  0
  2  3  1  0
  3  4  1  0
  4  5  1  0
  5  6  1  0
  6  7  1  0
  7  8  2  0
  8  9  1  0
  9 10  2  0
 10 11  1  0
 11 12  2  0
 12 13  1  0
 13 14  1  0
 13 15  2  0
 15 16  1  0
 16 17  2  0
 17  7  1  0
 17 11  1  0
  1 18  1  0
  1 19  1  0
  1 20  1  0
  2 21  1  0
  3 22  1  0
  3 23  1  0
  4 24  1  0
  4 25  1  0
  5 26  1  0
  5 27  1  0
  6 28  1  0
  8 29  1  0
  9 30  1  0
 12 31  1  0
 15 32  1  0
 16 33  1  0
M  END
>  <Batch_No>  (29) 
STK727106

>  <EC50_nM>  (29) 
82.2

>  <Set>  (29) 
Drug-like

>  <Molecular_Weight>  (29) 
249.73924

>  <ALogP>  (29) 
2.154

$$$$
MMV665878
     RDKit          3D

 48 50  0  0  0  0  0  0  0  0999 V2000
    3.6290    2.8579    2.7557 C   0  0  0  0  0  0  0  0  0  0  0  0
    4.6806    2.0119    2.3176 O   0  0  0  0  0  0  0  0  0  0  0  0
    4.3715    1.0237    1.3913 C   0  0  0  0  0  0  0  0  0  0  0  0
    5.4168    0.1966    0.9677 C   0  0  0  0  0  0  0  0  0  0  0  0
    5.2139   -0.8071    0.0568 C   0  0  0  0  0  0  0  0  0  0  0  0
    3.9479   -0.9924   -0.4428 C   0  0  0  0  0  0  0  0  0  0  0  0
    2.9111   -0.1628   -0.0147 C   0  0  0  0  0  0  0  0  0  0  0  0
    1.6184   -0.4208   -0.5834 N   0  0  0  0  0  0  0  0  0  0  0  0
    0.6968   -1.3299    0.0262 C   0  0  0  0  0  0  0  0  0  0  0  0
    1.1266   -1.8844    1.0960 O   0  0  0  0  0  0  0  0  0  0  0  0
   -0.6453   -1.6139   -0.5321 C   0  0  2  0  0  0  0  0  0  0  0  0
   -0.6149   -1.8992   -1.9954 C   0  0  0  0  0  0  0  0  0  0  0  0
   -1.9167   -2.1930   -2.6495 C   0  0  0  0  0  0  0  0  0  0  0  0
    0.3950   -2.9831   -2.2790 C   0  0  0  0  0  0  0  0  0  0  0  0
   -1.7063   -0.7674   -0.0666 N   0  0  0  0  0  0  0  0  0  0  0  0
   -2.9413   -1.3111    0.1595 C   0  0  0  0  0  0  0  0  0  0  0  0
   -3.1613   -2.5420   -0.0317 O   0  0  0  0  0  0  0  0  0  0  0  0
   -3.9832   -0.5861    0.5932 N   0  0  0  0  0  0  0  0  0  0  0  0
   -3.9041    0.7334    0.8426 C   0  0  0  0  0  0  0  0  0  0  0  0
   -5.0033    1.4373    1.2875 C   0  0  0  0  0  0  0  0  0  0  0  0
   -4.8483    2.7926    1.5237 C   0  0  0  0  0  0  0  0  0  0  0  0
   -3.6171    3.3834    1.3088 C   0  0  0  0  0  0  0  0  0  0  0  0
   -2.5214    2.6737    0.8636 C   0  0  0  0  0  0  0  0  0  0  0  0
   -2.6741    1.3217    0.6275 C   0  0  0  0  0  0  0  0  0  0  0  0
   -1.6003    0.5471    0.1749 C   0  0  0  0  0  0  0  0  0  0  0  0
   -0.5296    1.1477    0.0070 O   0  0  0  0  0  0  0  0  0  0  0  0
    3.0925    0.8435    0.8926 C   0  0  0  0  0  0  0  0  0  0  0  0
    3.9960    3.6696    3.4046 H   0  0  0  0  0  0  0  0  0  0  0  0
    3.2192    3.3766    1.8441 H   0  0  0  0  0  0  0  0  0  0  0  0
    2.8642    2.2045    3.2190 H   0  0  0  0  0  0  0  0  0  0  0  0
    6.4177    0.3250    1.3472 H   0  0  0  0  0  0  0  0  0  0  0  0
    5.9973   -1.4698   -0.2972 H   0  0  0  0  0  0  0  0  0  0  0  0
    3.7796   -1.7853   -1.1645 H   0  0  0  0  0  0  0  0  0  0  0  0
    1.4076    0.0810   -1.4656 H   0  0  0  0  0  0  0  0  0  0  0  0
   -0.9112   -2.6378   -0.0644 H   0  0  0  0  0  0  0  0  0  0  0  0
   -0.1857   -0.9716   -2.4775 H   0  0  0  0  0  0  0  0  0  0  0  0
   -2.6881   -1.4365   -2.4820 H   0  0  0  0  0  0  0  0  0  0  0  0
   -1.7221   -2.1456   -3.7670 H   0  0  0  0  0  0  0  0  0  0  0  0
   -2.2606   -3.2500   -2.5117 H   0  0  0  0  0  0  0  0  0  0  0  0
   -0.0299   -3.9969   -2.0476 H   0  0  0  0  0  0  0  0  0  0  0  0
    1.2273   -2.8298   -1.5714 H   0  0  0  0  0  0  0  0  0  0  0  0
    0.7954   -2.9450   -3.2930 H   0  0  0  0  0  0  0  0  0  0  0  0
   -4.9157   -1.0327    0.7562 H   0  0  0  0  0  0  0  0  0  0  0  0
   -5.9421    0.9218    1.4380 H   0  0  0  0  0  0  0  0  0  0  0  0
   -5.6870    3.3567    1.8687 H   0  0  0  0  0  0  0  0  0  0  0  0
   -3.5047    4.4369    1.4945 H   0  0  0  0  0  0  0  0  0  0  0  0
   -1.5764    3.1686    0.7072 H   0  0  0  0  0  0  0  0  0  0  0  0
    2.2865    1.4832    1.2209 H   0  0  0  0  0  0  0  0  0  0  0  0
  1  2  1  0
  2  3  1  0
  3  4  2  0
  4  5  1  0
  5  6  2  0
  6  7  1  0
  7  8  1  0
  8  9  1  0
  9 10  2  0
  9 11  1  0
 11 12  1  0
 12 13  1  0
 12 14  1  0
 11 15  1  0
 15 16  1  0
 16 17  2  0
 16 18  1  0
 18 19  1  0
 19 20  2  0
 20 21  1  0
 21 22  2  0
 22 23  1  0
 23 24  2  0
 24 25  1  0
 25 26  2  0
  7 27  2  0
 27  3  1  0
 25 15  1  0
 24 19  1  0
  1 28  1  0
  1 29  1  0
  1 30  1  0
  4 31  1  0
  5 32  1  0
  6 33  1  0
  8 34  1  0
 11 35  1  1
 12 36  1  0
 13 37  1  0
 13 38  1  0
 13 39  1  0
 14 40  1  0
 14 41  1  0
 14 42  1  0
 18 43  1  0
 20 44  1  0
 21 45  1  0
 22 46  1  0
 23 47  1  0
 27 48  1  0
M  END
>  <Batch_No>  (30) 
OSSK_938413

>  <EC50_nM>  (30) 
139

>  <Set>  (30) 
Drug-like

>  <Molecular_Weight>  (30) 
367.39844

>  <ALogP>  (30) 
2.717

$$$$
MMV666101
     RDKit          3D

 81 88  0  0  0  0  0  0  0  0999 V2000
   -5.5316   -5.4111    0.4527 C   0  0  0  0  0  0  0  0  0  0  0  0
   -5.4149   -4.1697    1.1493 O   0  0  0  0  0  0  0  0  0  0  0  0
   -4.3526   -3.3305    0.9085 C   0  0  0  0  0  0  0  0  0  0  0  0
   -4.2415   -2.1389    1.5774 C   0  0  0  0  0  0  0  0  0  0  0  0
   -3.1869   -1.2926    1.3464 C   0  0  0  0  0  0  0  0  0  0  0  0
   -2.1724   -1.5850    0.4284 C   0  0  0  0  0  0  0  0  0  0  0  0
   -2.3168   -2.8119   -0.2384 C   0  0  0  0  0  0  0  0  0  0  0  0
   -3.3788   -3.6516    0.0022 C   0  0  0  0  0  0  0  0  0  0  0  0
   -1.0824   -0.6738    0.1466 C   0  0  0  0  0  0  0  0  0  0  0  0
   -1.1918    0.5961   -0.2421 C   0  0  0  0  0  0  0  0  0  0  0  0
   -2.3539    1.4873   -0.1354 C   0  0  0  0  0  0  0  0  0  0  0  0
   -3.6234    1.0757   -0.5556 C   0  0  0  0  0  0  0  0  0  0  0  0
   -4.7295    1.9002   -0.4370 C   0  0  0  0  0  0  0  0  0  0  0  0
   -4.6203    3.1608    0.1002 C   0  0  0  0  0  0  0  0  0  0  0  0
   -5.7617    3.9257    0.1876 O   0  0  0  0  0  0  0  0  0  0  0  0
   -5.8122    5.2183    0.7065 C   0  0  0  0  0  0  0  0  0  0  0  0
   -3.3806    3.5894    0.5204 C   0  0  0  0  0  0  0  0  0  0  0  0
   -2.2837    2.7523    0.3953 C   0  0  0  0  0  0  0  0  0  0  0  0
    0.0661    1.0774   -0.9223 C   0  0  0  0  0  0  0  0  0  0  0  0
    1.0523    1.4686    0.0970 C   0  0  0  0  0  0  0  0  0  0  0  0
    0.9381    0.2600    1.0602 C   0  0  0  0  0  0  0  0  0  0  0  0
    2.3162   -0.0544    1.4654 C   0  0  0  0  0  0  0  0  0  0  0  0
    2.6037   -0.8523    2.3933 O   0  0  0  0  0  0  0  0  0  0  0  0
    3.2149    0.6812    0.6468 N   0  0  0  0  0  0  0  0  0  0  0  0
    2.4672    1.3697   -0.3726 C   0  0  0  0  0  0  0  0  0  0  0  0
    3.0141    1.7673   -1.4233 O   0  0  0  0  0  0  0  0  0  0  0  0
    4.6200    0.6842    0.8626 C   0  0  0  0  0  0  0  0  0  0  0  0
    5.2658    1.5941    1.6702 C   0  0  0  0  0  0  0  0  0  0  0  0
    6.6544    1.4997    1.8109 C   0  0  0  0  0  0  0  0  0  0  0  0
    7.3716    0.5072    1.1495 C   0  0  0  0  0  0  0  0  0  0  0  0
    8.8471    0.4562    1.3389 C   0  0  0  0  0  0  0  0  0  0  0  0
    6.7022   -0.4084    0.3340 C   0  0  0  0  0  0  0  0  0  0  0  0
    5.3354   -0.3138    0.1966 C   0  0  0  0  0  0  0  0  0  0  0  0
    0.4062   -0.8896    0.2384 C   0  0  0  0  0  0  0  0  0  0  0  0
    0.6489   -0.3387   -1.1653 C   0  0  0  0  0  0  0  0  0  0  0  0
    1.1175   -0.8053   -2.1295 O   0  0  0  0  0  0  0  0  0  0  0  0
    0.8943   -2.1811    0.5104 C   0  0  0  0  0  0  0  0  0  0  0  0
    0.3049   -3.1218    1.3434 C   0  0  0  0  0  0  0  0  0  0  0  0
    0.8237   -4.3836    1.5410 C   0  0  0  0  0  0  0  0  0  0  0  0
    1.9775   -4.7858    0.9115 C   0  0  0  0  0  0  0  0  0  0  0  0
    2.5884   -3.8763    0.0788 C   0  0  0  0  0  0  0  0  0  0  0  0
    2.0731   -2.6225   -0.1184 C   0  0  0  0  0  0  0  0  0  0  0  0
   -0.1500    1.8281   -2.1044 C   0  0  0  0  0  0  0  0  0  0  0  0
   -1.0041    1.3086   -3.0925 C   0  0  0  0  0  0  0  0  0  0  0  0
   -1.2698    1.9931   -4.2489 C   0  0  0  0  0  0  0  0  0  0  0  0
   -0.7172    3.2268   -4.5106 C   0  0  0  0  0  0  0  0  0  0  0  0
    0.1206    3.7562   -3.5606 C   0  0  0  0  0  0  0  0  0  0  0  0
    0.3863    3.0696   -2.4014 C   0  0  0  0  0  0  0  0  0  0  0  0
   -6.3905   -5.9888    0.8466 H   0  0  0  0  0  0  0  0  0  0  0  0
   -4.5892   -5.9724    0.6923 H   0  0  0  0  0  0  0  0  0  0  0  0
   -5.6772   -5.2505   -0.6239 H   0  0  0  0  0  0  0  0  0  0  0  0
   -5.0055   -1.8782    2.2941 H   0  0  0  0  0  0  0  0  0  0  0  0
   -3.1548   -0.3729    1.9029 H   0  0  0  0  0  0  0  0  0  0  0  0
   -1.5392   -3.0395   -0.9436 H   0  0  0  0  0  0  0  0  0  0  0  0
   -3.4467   -4.5856   -0.5359 H   0  0  0  0  0  0  0  0  0  0  0  0
   -3.7977    0.1115   -1.0047 H   0  0  0  0  0  0  0  0  0  0  0  0
   -5.7019    1.5497   -0.7719 H   0  0  0  0  0  0  0  0  0  0  0  0
   -5.5902    5.1766    1.8036 H   0  0  0  0  0  0  0  0  0  0  0  0
   -5.1502    5.9396    0.2157 H   0  0  0  0  0  0  0  0  0  0  0  0
   -6.8610    5.5782    0.5938 H   0  0  0  0  0  0  0  0  0  0  0  0
   -3.3052    4.5914    0.9447 H   0  0  0  0  0  0  0  0  0  0  0  0
   -1.3436    3.1523    0.7451 H   0  0  0  0  0  0  0  0  0  0  0  0
    0.8849    2.3553    0.6886 H   0  0  0  0  0  0  0  0  0  0  0  0
    0.2727    0.5180    1.9065 H   0  0  0  0  0  0  0  0  0  0  0  0
    4.6898    2.3587    2.1766 H   0  0  0  0  0  0  0  0  0  0  0  0
    7.1834    2.1914    2.4306 H   0  0  0  0  0  0  0  0  0  0  0  0
    9.0281    0.3192    2.4283 H   0  0  0  0  0  0  0  0  0  0  0  0
    9.2017   -0.4671    0.8242 H   0  0  0  0  0  0  0  0  0  0  0  0
    9.3878    1.3009    0.9114 H   0  0  0  0  0  0  0  0  0  0  0  0
    7.2725   -1.1748   -0.1744 H   0  0  0  0  0  0  0  0  0  0  0  0
    4.8551   -1.0369   -0.4402 H   0  0  0  0  0  0  0  0  0  0  0  0
   -0.5855   -2.8789    1.8974 H   0  0  0  0  0  0  0  0  0  0  0  0
    0.3395   -5.0765    2.1885 H   0  0  0  0  0  0  0  0  0  0  0  0
    2.3587   -5.7804    1.0875 H   0  0  0  0  0  0  0  0  0  0  0  0
    3.5106   -4.1720   -0.4358 H   0  0  0  0  0  0  0  0  0  0  0  0
    2.6248   -1.9711   -0.7931 H   0  0  0  0  0  0  0  0  0  0  0  0
   -1.4739    0.3325   -2.9425 H   0  0  0  0  0  0  0  0  0  0  0  0
   -1.9402    1.5465   -4.9851 H   0  0  0  0  0  0  0  0  0  0  0  0
   -0.9028    3.7941   -5.4091 H   0  0  0  0  0  0  0  0  0  0  0  0
    0.5694    4.7249   -3.7398 H   0  0  0  0  0  0  0  0  0  0  0  0
    1.0415    3.5497   -1.6909 H   0  0  0  0  0  0  0  0  0  0  0  0
  1  2  1  0
  2  3  1  0
  3  4  2  0
  4  5  1  0
  5  6  2  0
  6  7  1  0
  7  8  2  0
  6  9  1  0
  9 10  2  0
 10 11  1  0
 11 12  2  0
 12 13  1  0
 13 14  2  0
 14 15  1  0
 15 16  1  0
 14 17  1  0
 17 18  2  0
 10 19  1  0
 19 20  1  0
 20 21  1  0
 21 22  1  0
 22 23  2  0
 22 24  1  0
 24 25  1  0
 25 26  2  0
 24 27  1  0
 27 28  2  0
 28 29  1  0
 29 30  2  0
 30 31  1  0
 30 32  1  0
 32 33  2  0
 21 34  1  0
 34 35  1  0
 35 36  2  0
 34 37  1  0
 37 38  2  0
 38 39  1  0
 39 40  2  0
 40 41  1  0
 41 42  2  0
 19 43  1  0
 43 44  2  0
 44 45  1  0
 45 46  2  0
 46 47  1  0
 47 48  2  0
  8  3  1  0
 34  9  1  0
 18 11  1  0
 35 19  1  0
 25 20  1  0
 33 27  1  0
 42 37  1  0
 48 43  1  0
  1 49  1  0
  1 50  1  0
  1 51  1  0
  4 52  1  0
  5 53  1  0
  7 54  1  0
  8 55  1  0
 12 56  1  0
 13 57  1  0
 16 58  1  0
 16 59  1  0
 16 60  1  0
 17 61  1  0
 18 62  1  0
 20 63  1  0
 21 64  1  0
 28 65  1  0
 29 66  1  0
 31 67  1  0
 31 68  1  0
 31 69  1  0
 32 70  1  0
 33 71  1  0
 38 72  1  0
 39 73  1  0
 40 74  1  0
 41 75  1  0
 42 76  1  0
 44 77  1  0
 45 78  1  0
 46 79  1  0
 47 80  1  0
 48 81  1  0
M  END
>  <Batch_No>  (31) 
BAS 00447942

>  <EC50_nM>  (31) 
148

>  <Set>  (31) 
Probe-like

>  <Molecular_Weight>  (31) 
631.71511

>  <ALogP>  (31) 
6.994

$$$$
MMV666596
     RDKit          3D

 66 69  0  0  0  0  0  0  0  0999 V2000
    3.2601    2.8275   -3.2419 C   0  0  0  0  0  0  0  0  0  0  0  0
    2.0274    3.3276   -2.0306 S   0  0  0  0  0  0  0  0  0  0  0  0
    1.4789    1.8917   -1.1201 C   0  0  0  0  0  0  0  0  0  0  0  0
    1.8897    0.6603   -1.2852 N   0  0  0  0  0  0  0  0  0  0  0  0
    1.2080   -0.1844   -0.3642 C   0  0  0  0  0  0  0  0  0  0  0  0
    1.5147   -1.3285    0.1091 N   0  0  0  0  0  0  0  0  0  0  0  0
    2.6910   -2.0428   -0.2154 C   0  0  0  0  0  0  0  0  0  0  0  0
    3.6680   -2.3080    0.7426 C   0  0  0  0  0  0  0  0  0  0  0  0
    3.4770   -1.8338    2.1357 C   0  0  0  0  0  0  0  0  0  0  0  0
    4.8222   -3.0143    0.4040 C   0  0  0  0  0  0  0  0  0  0  0  0
    5.0234   -3.4622   -0.8701 C   0  0  0  0  0  0  0  0  0  0  0  0
    4.0595   -3.2039   -1.8278 C   0  0  0  0  0  0  0  0  0  0  0  0
    2.9132   -2.5041   -1.4976 C   0  0  0  0  0  0  0  0  0  0  0  0
    1.9144   -2.2607   -2.5808 C   0  0  0  0  0  0  0  0  0  0  0  0
   -0.0416    0.5415   -0.0004 C   0  0  0  0  0  0  0  0  0  0  0  0
   -0.5598    0.1726    1.3284 C   0  0  0  0  0  0  0  0  0  0  0  0
   -1.9644   -0.2454    1.4746 C   0  0  0  0  0  0  0  0  0  0  0  0
   -2.7644   -0.3123    0.2098 C   0  0  0  0  0  0  0  0  0  0  0  0
   -1.9004   -0.7639   -0.9273 C   0  0  0  0  0  0  0  0  0  0  0  0
   -0.9655    0.4193   -1.1626 C   0  0  0  0  0  0  0  0  0  0  0  0
   -3.9515   -1.2395    0.3161 C   0  0  0  0  0  0  0  0  0  0  0  0
   -4.9223   -0.8467    1.3834 C   0  0  0  0  0  0  0  0  0  0  0  0
   -3.5506   -2.6695    0.5175 C   0  0  0  0  0  0  0  0  0  0  0  0
   -4.6900   -1.1592   -1.0167 C   0  0  0  0  0  0  0  0  0  0  0  0
    0.4939    1.9125   -0.0674 N   0  0  0  0  0  0  0  0  0  0  0  0
    0.1253    3.0246    0.7302 C   0  0  0  0  0  0  0  0  0  0  0  0
   -0.8904    3.8995    0.3828 C   0  0  0  0  0  0  0  0  0  0  0  0
   -1.1820    4.9556    1.2186 C   0  0  0  0  0  0  0  0  0  0  0  0
   -0.4684    5.1378    2.3891 C   0  0  0  0  0  0  0  0  0  0  0  0
   -0.8348    6.4915    3.4705 Cl  0  0  0  0  0  0  0  0  0  0  0  0
    0.5562    4.2741    2.7616 C   0  0  0  0  0  0  0  0  0  0  0  0
    0.8263    3.2291    1.9096 C   0  0  0  0  0  0  0  0  0  0  0  0
    3.6927    1.8594   -2.9201 H   0  0  0  0  0  0  0  0  0  0  0  0
    2.7677    2.7777   -4.2459 H   0  0  0  0  0  0  0  0  0  0  0  0
    4.0615    3.6105   -3.2220 H   0  0  0  0  0  0  0  0  0  0  0  0
    3.0323   -0.8115    2.1270 H   0  0  0  0  0  0  0  0  0  0  0  0
    2.8214   -2.5623    2.6613 H   0  0  0  0  0  0  0  0  0  0  0  0
    4.4652   -1.8235    2.6583 H   0  0  0  0  0  0  0  0  0  0  0  0
    5.5309   -3.1787    1.2039 H   0  0  0  0  0  0  0  0  0  0  0  0
    5.9173   -4.0109   -1.1388 H   0  0  0  0  0  0  0  0  0  0  0  0
    4.2227   -3.5575   -2.8251 H   0  0  0  0  0  0  0  0  0  0  0  0
    1.8684   -3.1756   -3.1969 H   0  0  0  0  0  0  0  0  0  0  0  0
    0.9677   -1.9879   -2.1026 H   0  0  0  0  0  0  0  0  0  0  0  0
    2.3259   -1.4335   -3.2052 H   0  0  0  0  0  0  0  0  0  0  0  0
    0.1236   -0.6136    1.7564 H   0  0  0  0  0  0  0  0  0  0  0  0
   -0.3717    1.0537    2.0043 H   0  0  0  0  0  0  0  0  0  0  0  0
   -2.5252    0.3916    2.1921 H   0  0  0  0  0  0  0  0  0  0  0  0
   -2.0316   -1.2723    1.9388 H   0  0  0  0  0  0  0  0  0  0  0  0
   -3.1491    0.7047   -0.0103 H   0  0  0  0  0  0  0  0  0  0  0  0
   -2.4861   -0.9320   -1.8455 H   0  0  0  0  0  0  0  0  0  0  0  0
   -1.2298   -1.6077   -0.6595 H   0  0  0  0  0  0  0  0  0  0  0  0
   -0.4189    0.2321   -2.0904 H   0  0  0  0  0  0  0  0  0  0  0  0
   -1.5747    1.3421   -1.2546 H   0  0  0  0  0  0  0  0  0  0  0  0
   -4.8077   -1.4983    2.2656 H   0  0  0  0  0  0  0  0  0  0  0  0
   -4.6938    0.2220    1.6539 H   0  0  0  0  0  0  0  0  0  0  0  0
   -5.9862   -0.8679    1.0590 H   0  0  0  0  0  0  0  0  0  0  0  0
   -3.3019   -2.8611    1.5700 H   0  0  0  0  0  0  0  0  0  0  0  0
   -4.4617   -3.2889    0.2704 H   0  0  0  0  0  0  0  0  0  0  0  0
   -2.7678   -3.0093   -0.1906 H   0  0  0  0  0  0  0  0  0  0  0  0
   -5.7451   -1.4067   -0.8223 H   0  0  0  0  0  0  0  0  0  0  0  0
   -4.5436   -0.1361   -1.4265 H   0  0  0  0  0  0  0  0  0  0  0  0
   -4.2783   -1.9030   -1.7562 H   0  0  0  0  0  0  0  0  0  0  0  0
   -1.4378    3.7283   -0.5518 H   0  0  0  0  0  0  0  0  0  0  0  0
   -1.9671    5.6364    0.9553 H   0  0  0  0  0  0  0  0  0  0  0  0
    1.0896    4.4526    3.6856 H   0  0  0  0  0  0  0  0  0  0  0  0
    1.6279    2.5413    2.1869 H   0  0  0  0  0  0  0  0  0  0  0  0
  1  2  1  0
  2  3  1  0
  3  4  2  0
  4  5  1  0
  5  6  2  3
  6  7  1  0
  7  8  2  0
  8  9  1  0
  8 10  1  0
 10 11  2  0
 11 12  1  0
 12 13  2  0
 13 14  1  0
  5 15  1  0
 15 16  1  0
 16 17  1  0
 17 18  1  0
 18 19  1  0
 19 20  1  0
 18 21  1  0
 21 22  1  0
 21 23  1  0
 21 24  1  0
 15 25  1  0
 25 26  1  0
 26 27  2  0
 27 28  1  0
 28 29  2  0
 29 30  1  0
 29 31  1  0
 31 32  2  0
 25  3  1  0
 13  7  1  0
 20 15  1  0
 32 26  1  0
  1 33  1  0
  1 34  1  0
  1 35  1  0
  9 36  1  0
  9 37  1  0
  9 38  1  0
 10 39  1  0
 11 40  1  0
 12 41  1  0
 14 42  1  0
 14 43  1  0
 14 44  1  0
 16 45  1  0
 16 46  1  0
 17 47  1  0
 17 48  1  0
 18 49  1  0
 19 50  1  0
 19 51  1  0
 20 52  1  0
 20 53  1  0
 22 54  1  0
 22 55  1  0
 22 56  1  0
 23 57  1  0
 23 58  1  0
 23 59  1  0
 24 60  1  0
 24 61  1  0
 24 62  1  0
 27 63  1  0
 28 64  1  0
 31 65  1  0
 32 66  1  0
M  END
>  <Batch_No>  (32) 
0954-1171

>  <EC50_nM>  (32) 
135

>  <Set>  (32) 
Probe-like

>  <Molecular_Weight>  (32) 
468.09696

>  <ALogP>  (32) 
8.656

$$$$
MMV396679
     RDKit          3D

 49 52  0  0  0  0  0  0  0  0999 V2000
   -0.9706    0.3775    1.3157 C   0  0  0  0  0  0  0  0  0  0  0  0
   -1.9318    0.9579    0.4919 C   0  0  0  0  0  0  0  0  0  0  0  0
   -2.9657    0.0511    0.4545 C   0  0  0  0  0  0  0  0  0  0  0  0
   -4.2199    0.1927   -0.2755 C   0  0  0  0  0  0  0  0  0  0  0  0
   -4.5157    1.3045   -1.0487 C   0  0  0  0  0  0  0  0  0  0  0  0
   -5.7023    1.4116   -1.7202 C   0  0  0  0  0  0  0  0  0  0  0  0
   -6.6439    0.3839   -1.6317 C   0  0  0  0  0  0  0  0  0  0  0  0
   -7.8359    0.5035   -2.3126 O   0  0  0  0  0  0  0  0  0  0  0  0
   -8.8146   -0.5273   -2.2402 C   0  0  0  0  0  0  0  0  0  0  0  0
   -6.3846   -0.7368   -0.8722 C   0  0  0  0  0  0  0  0  0  0  0  0
   -5.1795   -0.7953   -0.2183 C   0  0  0  0  0  0  0  0  0  0  0  0
   -2.6246   -0.9952    1.2123 N   0  0  0  0  0  0  0  0  0  0  0  0
   -1.4285   -0.8046    1.7316 N   0  0  0  0  0  0  0  0  0  0  0  0
   -0.7372   -1.6288    2.5491 C   0  0  0  0  0  0  0  0  0  0  0  0
    0.5075   -1.1945    2.9585 C   0  0  0  0  0  0  0  0  0  0  0  0
    1.0007   -0.0111    2.5608 N   0  0  0  0  0  0  0  0  0  0  0  0
    0.2809    0.7665    1.7542 C   0  0  0  0  0  0  0  0  0  0  0  0
    0.9610    2.3524    1.2407 S   0  0  0  0  0  0  0  0  0  0  0  0
    2.6046    2.6000    1.9590 C   0  0  0  0  0  0  0  0  0  0  0  0
    3.6119    1.6696    1.4416 C   0  0  0  0  0  0  0  0  0  0  0  0
    4.7944    1.7640    1.8971 O   0  0  0  0  0  0  0  0  0  0  0  0
    3.3799    0.6674    0.4707 N   0  0  0  0  0  0  0  0  0  0  0  0
    4.4859   -0.1423    0.0895 C   0  0  0  0  0  0  0  0  0  0  0  0
    4.8196   -1.3209    0.7203 C   0  0  0  0  0  0  0  0  0  0  0  0
    3.8483   -1.8674    2.0619 Cl  0  0  0  0  0  0  0  0  0  0  0  0
    5.9112   -2.0643    0.2982 C   0  0  0  0  0  0  0  0  0  0  0  0
    6.7107   -1.6640   -0.7658 C   0  0  0  0  0  0  0  0  0  0  0  0
    6.3609   -0.4716   -1.3925 C   0  0  0  0  0  0  0  0  0  0  0  0
    7.2011   -0.0073   -2.5425 C   0  0  0  0  0  0  0  0  0  0  0  0
    7.2767    1.3846   -2.5105 F   0  0  0  0  0  0  0  0  0  0  0  0
    6.6356   -0.3570   -3.7404 F   0  0  0  0  0  0  0  0  0  0  0  0
    8.4756   -0.5143   -2.3596 F   0  0  0  0  0  0  0  0  0  0  0  0
    5.2747    0.2682   -0.9726 C   0  0  0  0  0  0  0  0  0  0  0  0
   -1.8379    1.9049    0.0158 H   0  0  0  0  0  0  0  0  0  0  0  0
   -3.7826    2.1231   -1.1275 H   0  0  0  0  0  0  0  0  0  0  0  0
   -5.8885    2.2928   -2.3082 H   0  0  0  0  0  0  0  0  0  0  0  0
   -8.9109   -0.7901   -1.1666 H   0  0  0  0  0  0  0  0  0  0  0  0
   -9.8068   -0.1781   -2.5795 H   0  0  0  0  0  0  0  0  0  0  0  0
   -8.4807   -1.4060   -2.7926 H   0  0  0  0  0  0  0  0  0  0  0  0
   -7.0652   -1.5535   -0.7663 H   0  0  0  0  0  0  0  0  0  0  0  0
   -4.9439   -1.6602    0.3864 H   0  0  0  0  0  0  0  0  0  0  0  0
   -1.1523   -2.5731    2.8550 H   0  0  0  0  0  0  0  0  0  0  0  0
    1.1141   -1.8013    3.6117 H   0  0  0  0  0  0  0  0  0  0  0  0
    2.8486    3.6633    1.8877 H   0  0  0  0  0  0  0  0  0  0  0  0
    2.5370    2.3936    3.0680 H   0  0  0  0  0  0  0  0  0  0  0  0
    2.4224    0.5655    0.0807 H   0  0  0  0  0  0  0  0  0  0  0  0
    6.1199   -2.9910    0.8443 H   0  0  0  0  0  0  0  0  0  0  0  0
    7.5600   -2.2507   -1.0871 H   0  0  0  0  0  0  0  0  0  0  0  0
    5.0802    1.1879   -1.5260 H   0  0  0  0  0  0  0  0  0  0  0  0
  1  2  2  0
  2  3  1  0
  3  4  1  0
  4  5  2  0
  5  6  1  0
  6  7  2  0
  7  8  1  0
  8  9  1  0
  7 10  1  0
 10 11  2  0
  3 12  2  0
  1 13  1  0
 13 14  1  0
 14 15  2  0
 15 16  1  0
 16 17  2  0
 17 18  1  0
 18 19  1  0
 19 20  1  0
 20 21  2  0
 20 22  1  0
 22 23  1  0
 23 24  2  0
 24 25  1  0
 24 26  1  0
 26 27  2  0
 27 28  1  0
 28 29  1  0
 29 30  1  0
 29 31  1  0
 29 32  1  0
 23 33  1  0
 17  1  1  0
 11  4  1  0
 13 12  1  0
 33 28  2  0
  2 34  1  0
  5 35  1  0
  6 36  1  0
  9 37  1  0
  9 38  1  0
  9 39  1  0
 10 40  1  0
 11 41  1  0
 14 42  1  0
 15 43  1  0
 19 44  1  0
 19 45  1  0
 22 46  1  0
 26 47  1  0
 27 48  1  0
 33 49  1  0
M  END
>  <Batch_No>  (33) 
G420-0224

>  <EC50_nM>  (33) 
89.9

>  <Set>  (33) 
Probe-like

>  <Molecular_Weight>  (33) 
492.90124

>  <ALogP>  (33) 
5.162

$$$$
MMV396797
     RDKit          3D

 38 40  0  0  0  0  0  0  0  0999 V2000
    3.0145    0.4586    0.1563 N   0  0  0  0  0  0  0  0  0  0  0  0
    2.7574    1.5597    0.8382 N   0  0  0  0  0  0  0  0  0  0  0  0
    1.4196    1.6365    1.0829 C   0  0  0  0  0  0  0  0  0  0  0  0
    0.7057    2.7037    1.8133 C   0  0  0  0  0  0  0  0  0  0  0  0
    0.8122    0.5279    0.5257 C   0  0  0  0  0  0  0  0  0  0  0  0
   -0.5629    0.1192    0.4922 C   0  0  0  0  0  0  0  0  0  0  0  0
   -1.0621   -0.6874    1.5227 C   0  0  0  0  0  0  0  0  0  0  0  0
   -2.3825   -1.0724    1.4788 C   0  0  0  0  0  0  0  0  0  0  0  0
   -3.2599   -0.7231    0.4909 C   0  0  0  0  0  0  0  0  0  0  0  0
   -4.5858   -1.1057    0.4404 O   0  0  0  0  0  0  0  0  0  0  0  0
   -5.0974   -1.9207    1.4783 C   0  0  0  0  0  0  0  0  0  0  0  0
   -2.7599    0.0796   -0.5331 C   0  0  0  0  0  0  0  0  0  0  0  0
   -3.6186    0.4533   -1.5506 O   0  0  0  0  0  0  0  0  0  0  0  0
   -3.2072    1.2581   -2.6217 C   0  0  0  0  0  0  0  0  0  0  0  0
   -1.4563    0.4725   -0.5101 C   0  0  0  0  0  0  0  0  0  0  0  0
    1.8465   -0.2107   -0.0604 C   0  0  0  0  0  0  0  0  0  0  0  0
    1.8588   -1.3731   -0.7416 N   0  0  0  0  0  0  0  0  0  0  0  0
    2.9811   -1.9086   -1.2222 C   0  0  0  0  0  0  0  0  0  0  0  0
    4.1630   -1.2278   -1.0007 C   0  0  0  0  0  0  0  0  0  0  0  0
    5.3890   -1.7808   -1.5070 C   0  0  0  0  0  0  0  0  0  0  0  0
    6.3814   -2.2349   -1.8979 N   0  0  0  0  0  0  0  0  0  0  0  0
    4.1776   -0.0348   -0.3057 C   0  0  0  0  0  0  0  0  0  0  0  0
    5.4093    0.6540   -0.0871 N   0  0  0  0  0  0  0  0  0  0  0  0
    1.4792    3.3209    2.3567 H   0  0  0  0  0  0  0  0  0  0  0  0
    0.0034    2.3361    2.5565 H   0  0  0  0  0  0  0  0  0  0  0  0
    0.2762    3.4056    1.0769 H   0  0  0  0  0  0  0  0  0  0  0  0
   -0.4258   -0.9903    2.3178 H   0  0  0  0  0  0  0  0  0  0  0  0
   -2.7346   -1.6948    2.2905 H   0  0  0  0  0  0  0  0  0  0  0  0
   -6.0602   -2.3420    1.0843 H   0  0  0  0  0  0  0  0  0  0  0  0
   -5.3290   -1.3707    2.4044 H   0  0  0  0  0  0  0  0  0  0  0  0
   -4.4005   -2.7450    1.7574 H   0  0  0  0  0  0  0  0  0  0  0  0
   -3.0322    2.3056   -2.3600 H   0  0  0  0  0  0  0  0  0  0  0  0
   -2.2664    0.8479   -3.0734 H   0  0  0  0  0  0  0  0  0  0  0  0
   -3.9433    1.2190   -3.4500 H   0  0  0  0  0  0  0  0  0  0  0  0
   -1.0886    1.0930   -1.3111 H   0  0  0  0  0  0  0  0  0  0  0  0
    2.9117   -2.8363   -1.7539 H   0  0  0  0  0  0  0  0  0  0  0  0
    6.2794    0.2920   -0.4955 H   0  0  0  0  0  0  0  0  0  0  0  0
    5.4069    1.5158    0.4851 H   0  0  0  0  0  0  0  0  0  0  0  0
  1  2  1  0
  2  3  2  0
  3  4  1  0
  3  5  1  0
  5  6  1  0
  6  7  2  0
  7  8  1  0
  8  9  2  0
  9 10  1  0
 10 11  1  0
  9 12  1  0
 12 13  1  0
 13 14  1  0
 12 15  2  0
  1 16  1  0
 16 17  1  0
 17 18  2  0
 18 19  1  0
 19 20  1  0
 20 21  3  0
 19 22  2  0
 22 23  1  0
 22  1  1  0
 16  5  2  0
 15  6  1  0
  4 24  1  0
  4 25  1  0
  4 26  1  0
  7 27  1  0
  8 28  1  0
 11 29  1  0
 11 30  1  0
 11 31  1  0
 14 32  1  0
 14 33  1  0
 14 34  1  0
 15 35  1  0
 18 36  1  0
 23 37  1  0
 23 38  1  0
M  END
>  <Batch_No>  (34) 
7848-0024

>  <EC50_nM>  (34) 
477

>  <Set>  (34) 
Drug-like

>  <Molecular_Weight>  (34) 
309.3226

>  <ALogP>  (34) 
1.542

$$$$
MMV008138
     RDKit          3D

 38 41  0  0  0  0  0  0  0  0999 V2000
   -0.2959   -0.2032    0.1973 C   0  0  0  0  0  0  0  0  0  0  0  0
   -1.4946    0.4379   -0.0935 C   0  0  0  0  0  0  0  0  0  0  0  0
   -1.4202    1.7651   -0.7130 C   0  0  0  0  0  0  0  0  0  0  0  0
   -0.2585    1.9535   -1.6469 C   0  0  0  0  0  0  0  0  0  0  0  0
    0.2238    3.3471   -1.5240 C   0  0  0  0  0  0  0  0  0  0  0  0
   -0.6236    4.4385   -1.6245 O   0  0  0  0  0  0  0  0  0  0  0  0
    1.4751    3.4984   -1.3185 O   0  0  0  0  0  0  0  0  0  0  0  0
    0.7831    0.9829   -1.5122 N   0  0  0  0  0  0  0  0  0  0  0  0
    0.9444    0.5292   -0.1583 C   0  0  0  0  0  0  0  0  0  0  0  0
    2.1656   -0.2270    0.0967 C   0  0  0  0  0  0  0  0  0  0  0  0
    2.3438   -1.5250   -0.3693 C   0  0  0  0  0  0  0  0  0  0  0  0
    3.4828   -2.2497   -0.1369 C   0  0  0  0  0  0  0  0  0  0  0  0
    4.4930   -1.6657    0.5892 C   0  0  0  0  0  0  0  0  0  0  0  0
    5.9622   -2.5735    0.9004 Cl  0  0  0  0  0  0  0  0  0  0  0  0
    4.3814   -0.3843    1.0794 C   0  0  0  0  0  0  0  0  0  0  0  0
    3.2346    0.3046    0.8283 C   0  0  0  0  0  0  0  0  0  0  0  0
    3.0393    1.9394    1.4280 Cl  0  0  0  0  0  0  0  0  0  0  0  0
   -2.4802   -0.4151    0.3120 C   0  0  0  0  0  0  0  0  0  0  0  0
   -1.8600   -1.5518    0.8388 C   0  0  0  0  0  0  0  0  0  0  0  0
   -2.6246   -2.5898    1.3272 C   0  0  0  0  0  0  0  0  0  0  0  0
   -3.9986   -2.4725    1.2799 C   0  0  0  0  0  0  0  0  0  0  0  0
   -4.6427   -1.3662    0.7676 C   0  0  0  0  0  0  0  0  0  0  0  0
   -3.8590   -0.3169    0.2739 C   0  0  0  0  0  0  0  0  0  0  0  0
   -0.5211   -1.3908    0.7542 N   0  0  0  0  0  0  0  0  0  0  0  0
   -1.3861    2.5148    0.1150 H   0  0  0  0  0  0  0  0  0  0  0  0
   -2.3976    1.9491   -1.2353 H   0  0  0  0  0  0  0  0  0  0  0  0
   -0.6578    1.8466   -2.6927 H   0  0  0  0  0  0  0  0  0  0  0  0
   -0.2578    5.4037   -1.6250 H   0  0  0  0  0  0  0  0  0  0  0  0
    1.6476    1.3596   -1.9575 H   0  0  0  0  0  0  0  0  0  0  0  0
    0.9562    1.4183    0.5364 H   0  0  0  0  0  0  0  0  0  0  0  0
    1.5636   -2.0123   -0.9456 H   0  0  0  0  0  0  0  0  0  0  0  0
    3.6267   -3.2615   -0.4977 H   0  0  0  0  0  0  0  0  0  0  0  0
    5.1647    0.0863    1.6489 H   0  0  0  0  0  0  0  0  0  0  0  0
   -2.1987   -3.4862    1.7430 H   0  0  0  0  0  0  0  0  0  0  0  0
   -4.6534   -3.2698    1.6554 H   0  0  0  0  0  0  0  0  0  0  0  0
   -5.7313   -1.2944    0.7398 H   0  0  0  0  0  0  0  0  0  0  0  0
   -4.3011    0.5733   -0.1387 H   0  0  0  0  0  0  0  0  0  0  0  0
    0.1751   -2.0928    1.0779 H   0  0  0  0  0  0  0  0  0  0  0  0
  1  2  2  0
  2  3  1  0
  3  4  1  0
  4  5  1  0
  5  6  1  0
  5  7  2  0
  4  8  1  0
  8  9  1  0
  9 10  1  0
 10 11  2  0
 11 12  1  0
 12 13  2  0
 13 14  1  0
 13 15  1  0
 15 16  2  0
 16 17  1  0
  2 18  1  0
 18 19  2  0
 19 20  1  0
 20 21  2  0
 21 22  1  0
 22 23  2  0
 19 24  1  0
  9  1  1  0
 24  1  1  0
 16 10  1  0
 23 18  1  0
  3 25  1  0
  3 26  1  0
  4 27  1  0
  6 28  1  0
  8 29  1  0
  9 30  1  0
 11 31  1  0
 12 32  1  0
 15 33  1  0
 20 34  1  0
 21 35  1  0
 22 36  1  0
 23 37  1  0
 24 38  1  0
M  END
>  <Batch_No>  (35) 
1323-0025

>  <EC50_nM>  (35) 
350

>  <Set>  (35) 
Drug-like

>  <Molecular_Weight>  (35) 
361.22196

>  <ALogP>  (35) 
1.773

$$$$
MMV665916
     RDKit          3D

 45 47  0  0  0  0  0  0  0  0999 V2000
   -4.6918   -0.3635   -1.6829 C   0  0  0  0  0  0  0  0  0  0  0  0
   -4.0290   -0.5154   -0.4598 O   0  0  0  0  0  0  0  0  0  0  0  0
   -3.3857    0.4881    0.2442 C   0  0  0  0  0  0  0  0  0  0  0  0
   -3.3580    1.7941   -0.2559 C   0  0  0  0  0  0  0  0  0  0  0  0
   -2.7067    2.7862    0.4670 C   0  0  0  0  0  0  0  0  0  0  0  0
   -2.0932    2.4870    1.6663 C   0  0  0  0  0  0  0  0  0  0  0  0
   -2.1120    1.1939    2.1765 C   0  0  0  0  0  0  0  0  0  0  0  0
   -2.7585    0.2102    1.4582 C   0  0  0  0  0  0  0  0  0  0  0  0
   -2.8349   -1.1949    1.9257 C   0  0  0  0  0  0  0  0  0  0  0  0
   -1.9695   -2.0950    1.2198 N   0  0  0  0  0  0  0  0  0  0  0  0
   -0.5229   -1.9049    1.2130 C   0  0  0  0  0  0  0  0  0  0  0  0
   -0.1314   -0.9236    1.8549 O   0  0  0  0  0  0  0  0  0  0  0  0
    0.2371   -2.8894    0.4585 C   0  0  0  0  0  0  0  0  0  0  0  0
    1.7130   -2.7356    0.4106 C   0  0  0  0  0  0  0  0  0  0  0  0
    2.2496   -1.5450   -0.1522 N   0  0  0  0  0  0  0  0  0  0  0  0
    2.3280   -1.4914   -1.5171 C   0  0  0  0  0  0  0  0  0  0  0  0
    1.8982   -2.4395   -2.2308 O   0  0  0  0  0  0  0  0  0  0  0  0
    2.8578   -0.4448   -2.1674 N   0  0  0  0  0  0  0  0  0  0  0  0
    3.3554    0.6375   -1.5318 C   0  0  0  0  0  0  0  0  0  0  0  0
    3.8994    1.7116   -2.2098 C   0  0  0  0  0  0  0  0  0  0  0  0
    4.3932    2.7924   -1.4837 C   0  0  0  0  0  0  0  0  0  0  0  0
    4.3428    2.7982   -0.0844 C   0  0  0  0  0  0  0  0  0  0  0  0
    3.7873    1.6982    0.5729 C   0  0  0  0  0  0  0  0  0  0  0  0
    3.2923    0.6149   -0.1536 C   0  0  0  0  0  0  0  0  0  0  0  0
    2.7352   -0.4889    0.5119 C   0  0  0  0  0  0  0  0  0  0  0  0
    2.7284   -0.4207    1.7497 O   0  0  0  0  0  0  0  0  0  0  0  0
   -5.6269    0.2130   -1.5537 H   0  0  0  0  0  0  0  0  0  0  0  0
   -5.0008   -1.4034   -1.9974 H   0  0  0  0  0  0  0  0  0  0  0  0
   -4.0510    0.0408   -2.4960 H   0  0  0  0  0  0  0  0  0  0  0  0
   -3.8438    2.0162   -1.1990 H   0  0  0  0  0  0  0  0  0  0  0  0
   -2.6755    3.8001    0.0963 H   0  0  0  0  0  0  0  0  0  0  0  0
   -1.5974    3.3054    2.1903 H   0  0  0  0  0  0  0  0  0  0  0  0
   -1.6309    0.9813    3.1142 H   0  0  0  0  0  0  0  0  0  0  0  0
   -3.8832   -1.5290    1.8014 H   0  0  0  0  0  0  0  0  0  0  0  0
   -2.6466   -1.1954    3.0200 H   0  0  0  0  0  0  0  0  0  0  0  0
   -2.3850   -2.9193    0.6888 H   0  0  0  0  0  0  0  0  0  0  0  0
   -0.0315   -3.8984    0.9329 H   0  0  0  0  0  0  0  0  0  0  0  0
   -0.2128   -2.9039   -0.5890 H   0  0  0  0  0  0  0  0  0  0  0  0
    2.0886   -2.9056    1.4681 H   0  0  0  0  0  0  0  0  0  0  0  0
    2.1248   -3.6335   -0.1458 H   0  0  0  0  0  0  0  0  0  0  0  0
    2.9004   -0.4414   -3.2257 H   0  0  0  0  0  0  0  0  0  0  0  0
    3.9392    1.7083   -3.3036 H   0  0  0  0  0  0  0  0  0  0  0  0
    4.8333    3.6641   -1.9873 H   0  0  0  0  0  0  0  0  0  0  0  0
    4.7226    3.6298    0.4769 H   0  0  0  0  0  0  0  0  0  0  0  0
    3.7528    1.7114    1.6497 H   0  0  0  0  0  0  0  0  0  0  0  0
  1  2  1  0
  2  3  1  0
  3  4  2  0
  4  5  1  0
  5  6  2  0
  6  7  1  0
  7  8  2  0
  8  9  1  0
  9 10  1  0
 10 11  1  0
 11 12  2  0
 11 13  1  0
 13 14  1  0
 14 15  1  0
 15 16  1  0
 16 17  2  0
 16 18  1  0
 18 19  1  0
 19 20  2  0
 20 21  1  0
 21 22  2  0
 22 23  1  0
 23 24  2  0
 24 25  1  0
 25 26  2  0
  8  3  1  0
 25 15  1  0
 24 19  1  0
  1 27  1  0
  1 28  1  0
  1 29  1  0
  4 30  1  0
  5 31  1  0
  6 32  1  0
  7 33  1  0
  9 34  1  0
  9 35  1  0
 10 36  1  0
 13 37  1  0
 13 38  1  0
 14 39  1  0
 14 40  1  0
 18 41  1  0
 20 42  1  0
 21 43  1  0
 22 44  1  0
 23 45  1  0
M  END
>  <Batch_No>  (36) 
F3407-3786

>  <EC50_nM>  (36) 
72.6

>  <Set>  (36) 
Drug-like

>  <Molecular_Weight>  (36) 
353.37186

>  <ALogP>  (36) 
1.645

$$$$
MMV020788
     RDKit          3D

 45 48  0  0  0  0  0  0  0  0999 V2000
    3.5907    2.5073   -0.1505 O   0  0  0  0  0  0  0  0  0  0  0  0
    3.9657    1.1681    0.0556 C   0  0  0  0  0  0  0  0  0  0  0  0
    5.1101    0.8613    0.7530 C   0  0  0  0  0  0  0  0  0  0  0  0
    5.4660   -0.4466    0.9412 C   0  0  0  0  0  0  0  0  0  0  0  0
    4.6788   -1.4668    0.4334 C   0  0  0  0  0  0  0  0  0  0  0  0
    3.5027   -1.1940   -0.2832 C   0  0  0  0  0  0  0  0  0  0  0  0
    3.1624    0.1394   -0.4607 C   0  0  0  0  0  0  0  0  0  0  0  0
    1.9239    0.5156   -1.2277 C   0  0  0  0  0  0  0  0  0  0  0  0
    1.0659   -0.5360   -1.5280 N   0  0  0  0  0  0  0  0  0  0  0  0
    0.2229   -1.1646   -0.6261 C   0  0  0  0  0  0  0  0  0  0  0  0
   -1.0391   -0.5127   -0.1610 C   0  0  0  0  0  0  0  0  0  0  0  0
   -0.8024    0.7889    0.5030 C   0  0  0  0  0  0  0  0  0  0  0  0
   -2.0951    1.3293    1.1442 C   0  0  0  0  0  0  0  0  0  0  0  0
   -2.6384    0.2642    2.0507 C   0  0  0  0  0  0  0  0  0  0  0  0
   -3.0506   -0.9531    1.2582 C   0  0  0  0  0  0  0  0  0  0  0  0
   -4.0088   -0.6100    0.1455 C   0  0  0  0  0  0  0  0  0  0  0  0
   -3.2660    0.3476   -0.7769 C   0  0  0  0  0  0  0  0  0  0  0  0
   -3.0615    1.6084    0.0094 C   0  0  0  0  0  0  0  0  0  0  0  0
   -2.0030   -0.2484   -1.3320 C   0  0  0  0  0  0  0  0  0  0  0  0
   -1.7821   -1.5352    0.6924 C   0  0  0  0  0  0  0  0  0  0  0  0
    3.5198    2.8766   -1.0944 H   0  0  0  0  0  0  0  0  0  0  0  0
    5.7257    1.6568    1.1504 H   0  0  0  0  0  0  0  0  0  0  0  0
    6.3788   -0.6273    1.5033 H   0  0  0  0  0  0  0  0  0  0  0  0
    4.9814   -2.5117    0.5896 H   0  0  0  0  0  0  0  0  0  0  0  0
    2.8993   -2.0118   -0.6793 H   0  0  0  0  0  0  0  0  0  0  0  0
    2.3502    0.8922   -2.2151 H   0  0  0  0  0  0  0  0  0  0  0  0
    1.5328    1.3947   -0.7052 H   0  0  0  0  0  0  0  0  0  0  0  0
    1.0368   -0.8231   -2.5242 H   0  0  0  0  0  0  0  0  0  0  0  0
   -0.0397   -2.1905   -1.0610 H   0  0  0  0  0  0  0  0  0  0  0  0
    0.8329   -1.4554    0.2849 H   0  0  0  0  0  0  0  0  0  0  0  0
    0.0370    0.8415    1.1921 H   0  0  0  0  0  0  0  0  0  0  0  0
   -0.6582    1.5450   -0.3420 H   0  0  0  0  0  0  0  0  0  0  0  0
   -1.8574    2.2357    1.6995 H   0  0  0  0  0  0  0  0  0  0  0  0
   -3.4566    0.6356    2.6988 H   0  0  0  0  0  0  0  0  0  0  0  0
   -1.7983   -0.0622    2.7010 H   0  0  0  0  0  0  0  0  0  0  0  0
   -3.4998   -1.6582    1.9745 H   0  0  0  0  0  0  0  0  0  0  0  0
   -4.3689   -1.5140   -0.3374 H   0  0  0  0  0  0  0  0  0  0  0  0
   -4.8706   -0.0192    0.5678 H   0  0  0  0  0  0  0  0  0  0  0  0
   -3.9427    0.5366   -1.6449 H   0  0  0  0  0  0  0  0  0  0  0  0
   -4.0292    1.8817    0.4591 H   0  0  0  0  0  0  0  0  0  0  0  0
   -2.7228    2.4679   -0.5935 H   0  0  0  0  0  0  0  0  0  0  0  0
   -2.2804   -1.1978   -1.8315 H   0  0  0  0  0  0  0  0  0  0  0  0
   -1.5218    0.4832   -1.9761 H   0  0  0  0  0  0  0  0  0  0  0  0
   -2.0937   -2.3328   -0.0227 H   0  0  0  0  0  0  0  0  0  0  0  0
   -1.0964   -1.9062    1.4702 H   0  0  0  0  0  0  0  0  0  0  0  0
  1  2  1  0
  2  3  2  0
  3  4  1  0
  4  5  2  0
  5  6  1  0
  6  7  2  0
  7  8  1  0
  8  9  1  0
  9 10  1  0
 10 11  1  0
 11 12  1  0
 12 13  1  0
 13 14  1  0
 14 15  1  0
 15 16  1  0
 16 17  1  0
 17 18  1  0
 17 19  1  0
 15 20  1  0
  7  2  1  0
 19 11  1  0
 20 11  1  0
 18 13  1  0
  1 21  1  0
  3 22  1  0
  4 23  1  0
  5 24  1  0
  6 25  1  0
  8 26  1  0
  8 27  1  0
  9 28  1  0
 10 29  1  0
 10 30  1  0
 12 31  1  0
 12 32  1  0
 13 33  1  0
 14 34  1  0
 14 35  1  0
 15 36  1  0
 16 37  1  0
 16 38  1  0
 17 39  1  0
 18 40  1  0
 18 41  1  0
 19 42  1  0
 19 43  1  0
 20 44  1  0
 20 45  1  0
M  END
>  <Batch_No>  (37) 
STK547743

>  <EC50_nM>  (37) 
22.6

>  <Set>  (37) 
Probe-like

>  <Molecular_Weight>  (37) 
271.3972

>  <ALogP>  (37) 
3.6

$$$$
MMV666691
     RDKit          3D

 40 42  0  0  0  0  0  0  0  0999 V2000
    7.1614   -1.6689    2.3515 C   0  0  0  0  0  0  0  0  0  0  0  0
    6.0545   -0.8854    2.7635 O   0  0  0  0  0  0  0  0  0  0  0  0
    4.9986   -0.6423    1.9075 C   0  0  0  0  0  0  0  0  0  0  0  0
    4.9846   -1.1472    0.6260 C   0  0  0  0  0  0  0  0  0  0  0  0
    3.8753   -0.8537   -0.1758 C   0  0  0  0  0  0  0  0  0  0  0  0
    2.8292   -0.0867    0.2935 C   0  0  0  0  0  0  0  0  0  0  0  0
    1.7273    0.1600   -0.6261 C   0  0  0  0  0  0  0  0  0  0  0  0
    0.4884    0.0990   -0.1596 C   0  0  0  0  0  0  0  0  0  0  0  0
   -0.0496   -0.2653    1.5295 S   0  0  0  0  0  0  0  0  0  0  0  0
   -1.7157   -0.7379    1.0203 C   0  0  0  0  0  0  0  0  0  0  0  0
   -2.5816   -1.4452    1.6303 N   0  0  0  0  0  0  0  0  0  0  0  0
   -1.8969   -0.1464   -0.2499 N   0  0  0  0  0  0  0  0  0  0  0  0
   -0.7580    0.2989   -0.8865 C   0  0  0  0  0  0  0  0  0  0  0  0
   -0.7447    0.8592   -2.0430 O   0  0  0  0  0  0  0  0  0  0  0  0
   -3.2280   -0.0288   -0.8248 C   0  0  0  0  0  0  0  0  0  0  0  0
   -3.6987   -1.0406   -1.6003 C   0  0  0  0  0  0  0  0  0  0  0  0
   -4.9667   -1.0173   -2.1854 C   0  0  0  0  0  0  0  0  0  0  0  0
   -5.7130    0.1288   -1.9103 C   0  0  0  0  0  0  0  0  0  0  0  0
   -5.2382    1.1464   -1.1300 C   0  0  0  0  0  0  0  0  0  0  0  0
   -3.9868    1.0891   -0.5715 C   0  0  0  0  0  0  0  0  0  0  0  0
   -3.4361    2.0738    0.2266 O   0  0  0  0  0  0  0  0  0  0  0  0
   -4.1783    3.2349    0.5111 C   0  0  0  0  0  0  0  0  0  0  0  0
    2.8685    0.4055    1.5772 C   0  0  0  0  0  0  0  0  0  0  0  0
    3.9479    0.1315    2.3861 C   0  0  0  0  0  0  0  0  0  0  0  0
    7.9675   -1.6089    3.1181 H   0  0  0  0  0  0  0  0  0  0  0  0
    6.7573   -2.6990    2.2302 H   0  0  0  0  0  0  0  0  0  0  0  0
    7.6012   -1.3474    1.4017 H   0  0  0  0  0  0  0  0  0  0  0  0
    5.7890   -1.7501    0.2335 H   0  0  0  0  0  0  0  0  0  0  0  0
    3.8960   -1.2648   -1.1745 H   0  0  0  0  0  0  0  0  0  0  0  0
    1.8479    0.3941   -1.6731 H   0  0  0  0  0  0  0  0  0  0  0  0
   -2.4643   -1.8909    2.5765 H   0  0  0  0  0  0  0  0  0  0  0  0
   -3.1006   -1.9325   -1.8055 H   0  0  0  0  0  0  0  0  0  0  0  0
   -5.3377   -1.8225   -2.8011 H   0  0  0  0  0  0  0  0  0  0  0  0
   -6.7116    0.1596   -2.3633 H   0  0  0  0  0  0  0  0  0  0  0  0
   -5.8717    1.9927   -0.9645 H   0  0  0  0  0  0  0  0  0  0  0  0
   -4.9391    2.9543    1.2471 H   0  0  0  0  0  0  0  0  0  0  0  0
   -3.5337    4.0837    0.8237 H   0  0  0  0  0  0  0  0  0  0  0  0
   -4.6908    3.5380   -0.4282 H   0  0  0  0  0  0  0  0  0  0  0  0
    2.0816    1.0040    1.9694 H   0  0  0  0  0  0  0  0  0  0  0  0
    3.9659    0.5283    3.4012 H   0  0  0  0  0  0  0  0  0  0  0  0
  1  2  1  0
  2  3  1  0
  3  4  2  0
  4  5  1  0
  5  6  2  0
  6  7  1  0
  7  8  2  3
  8  9  1  0
  9 10  1  0
 10 11  2  3
 10 12  1  0
 12 13  1  0
 13 14  2  0
 12 15  1  0
 15 16  2  0
 16 17  1  0
 17 18  2  0
 18 19  1  0
 19 20  2  0
 20 21  1  0
 21 22  1  0
  6 23  1  0
 23 24  2  0
 24  3  1  0
 13  8  1  0
 20 15  1  0
  1 25  1  0
  1 26  1  0
  1 27  1  0
  4 28  1  0
  5 29  1  0
  7 30  1  0
 11 31  1  0
 16 32  1  0
 17 33  1  0
 18 34  1  0
 19 35  1  0
 22 36  1  0
 22 37  1  0
 22 38  1  0
 23 39  1  0
 24 40  1  0
M  END
>  <Batch_No>  (38) 
STK742914

>  <EC50_nM>  (38) 
168

>  <Set>  (38) 
Probe-like

>  <Molecular_Weight>  (38) 
340.39624

>  <ALogP>  (38) 
3.746

$$$$
MMV665785
     RDKit          3D

 46 47  0  0  0  0  0  0  0  0999 V2000
   -5.3756    0.1145    0.6126 C   0  0  0  0  0  0  0  0  0  0  0  0
   -4.1279   -0.5810    0.0871 C   0  0  0  0  0  0  0  0  0  0  0  0
   -3.8699   -1.7527    1.0371 C   0  0  0  0  0  0  0  0  0  0  0  0
   -4.3568   -1.0820   -1.3060 C   0  0  0  0  0  0  0  0  0  0  0  0
   -2.9634    0.3191    0.2232 C   0  0  0  0  0  0  0  0  0  0  0  0
   -3.1511    1.5911    0.7760 C   0  0  0  0  0  0  0  0  0  0  0  0
   -2.1096    2.4786    0.9321 C   0  0  0  0  0  0  0  0  0  0  0  0
   -0.8634    2.0591    0.5181 C   0  0  0  0  0  0  0  0  0  0  0  0
    0.2176    2.9466    0.6666 O   0  0  0  0  0  0  0  0  0  0  0  0
   -0.6701    0.7883   -0.0352 C   0  0  0  0  0  0  0  0  0  0  0  0
    0.7300    0.4745   -0.4358 C   0  0  0  0  0  0  0  0  0  0  0  0
    1.4378    0.1886    0.7959 N   0  0  0  0  0  0  0  0  0  0  0  0
    2.8263   -0.1173    0.5806 C   0  0  0  0  0  0  0  0  0  0  0  0
    3.0841   -1.2974   -0.2975 C   0  0  0  0  0  0  0  0  0  0  0  0
    4.5256   -1.6796   -0.0884 C   0  0  0  0  0  0  0  0  0  0  0  0
    5.4995   -0.5725   -0.2986 C   0  0  0  0  0  0  0  0  0  0  0  0
    5.0416    0.7831    0.1255 C   0  0  0  0  0  0  0  0  0  0  0  0
    3.5749    1.0298   -0.0652 C   0  0  0  0  0  0  0  0  0  0  0  0
   -1.7161   -0.0878   -0.1860 C   0  0  0  0  0  0  0  0  0  0  0  0
   -6.2178   -0.6275    0.5583 H   0  0  0  0  0  0  0  0  0  0  0  0
   -5.2025    0.3025    1.6899 H   0  0  0  0  0  0  0  0  0  0  0  0
   -5.6086    1.0275    0.0311 H   0  0  0  0  0  0  0  0  0  0  0  0
   -3.1317   -2.4746    0.6253 H   0  0  0  0  0  0  0  0  0  0  0  0
   -3.4856   -1.2926    1.9837 H   0  0  0  0  0  0  0  0  0  0  0  0
   -4.8162   -2.2895    1.2874 H   0  0  0  0  0  0  0  0  0  0  0  0
   -3.3626   -1.1643   -1.8031 H   0  0  0  0  0  0  0  0  0  0  0  0
   -4.8507   -2.0707   -1.3100 H   0  0  0  0  0  0  0  0  0  0  0  0
   -5.0534   -0.4066   -1.8698 H   0  0  0  0  0  0  0  0  0  0  0  0
   -4.1261    1.9337    1.1055 H   0  0  0  0  0  0  0  0  0  0  0  0
   -2.2101    3.4669    1.3525 H   0  0  0  0  0  0  0  0  0  0  0  0
    1.0141    2.6114    1.2296 H   0  0  0  0  0  0  0  0  0  0  0  0
    0.7654   -0.4082   -1.1072 H   0  0  0  0  0  0  0  0  0  0  0  0
    1.2260    1.3631   -0.8968 H   0  0  0  0  0  0  0  0  0  0  0  0
    0.9818   -0.5395    1.3629 H   0  0  0  0  0  0  0  0  0  0  0  0
    3.2893   -0.2888    1.5735 H   0  0  0  0  0  0  0  0  0  0  0  0
    2.9511   -1.0115   -1.3590 H   0  0  0  0  0  0  0  0  0  0  0  0
    2.4661   -2.1805   -0.0584 H   0  0  0  0  0  0  0  0  0  0  0  0
    4.5974   -2.1541    0.9241 H   0  0  0  0  0  0  0  0  0  0  0  0
    4.7558   -2.4937   -0.8086 H   0  0  0  0  0  0  0  0  0  0  0  0
    6.4083   -0.8031    0.3275 H   0  0  0  0  0  0  0  0  0  0  0  0
    5.8691   -0.5465   -1.3453 H   0  0  0  0  0  0  0  0  0  0  0  0
    5.2880    0.9920    1.1826 H   0  0  0  0  0  0  0  0  0  0  0  0
    5.5894    1.5505   -0.4777 H   0  0  0  0  0  0  0  0  0  0  0  0
    3.3373    0.9593   -1.1676 H   0  0  0  0  0  0  0  0  0  0  0  0
    3.3207    2.0078    0.3707 H   0  0  0  0  0  0  0  0  0  0  0  0
   -1.5282   -1.0659   -0.6203 H   0  0  0  0  0  0  0  0  0  0  0  0
  1  2  1  0
  2  3  1  0
  2  4  1  0
  2  5  1  0
  5  6  2  0
  6  7  1  0
  7  8  2  0
  8  9  1  0
  8 10  1  0
 10 11  1  0
 11 12  1  0
 12 13  1  0
 13 14  1  0
 14 15  1  0
 15 16  1  0
 16 17  1  0
 17 18  1  0
 10 19  2  0
 19  5  1  0
 18 13  1  0
  1 20  1  0
  1 21  1  0
  1 22  1  0
  3 23  1  0
  3 24  1  0
  3 25  1  0
  4 26  1  0
  4 27  1  0
  4 28  1  0
  6 29  1  0
  7 30  1  0
  9 31  1  0
 11 32  1  0
 11 33  1  0
 12 34  1  0
 13 35  1  0
 14 36  1  0
 14 37  1  0
 15 38  1  0
 15 39  1  0
 16 40  1  0
 16 41  1  0
 17 42  1  0
 17 43  1  0
 18 44  1  0
 18 45  1  0
 19 46  1  0
M  END
>  <Batch_No>  (39) 
AA-516/12432314

>  <EC50_nM>  (39) 
161

>  <Set>  (39) 
Probe-like

>  <Molecular_Weight>  (39) 
261.40238

>  <ALogP>  (39) 
4.384

$$$$
MMV665831
     RDKit          3D

 56 58  0  0  0  0  0  0  0  0999 V2000
    1.9650   -4.5119   -1.1274 C   0  0  0  0  0  0  0  0  0  0  0  0
    3.0234   -3.4760   -1.3429 C   0  0  0  0  0  0  0  0  0  0  0  0
    2.4092   -2.1956   -1.2797 O   0  0  0  0  0  0  0  0  0  0  0  0
    1.7695   -1.8569   -0.0979 C   0  0  0  0  0  0  0  0  0  0  0  0
    1.7040   -2.6097    0.9054 O   0  0  0  0  0  0  0  0  0  0  0  0
    1.0981   -0.5168    0.0387 C   0  0  0  0  0  0  0  0  0  0  0  0
    1.8395    0.5235    0.5183 C   0  0  0  0  0  0  0  0  0  0  0  0
    3.1533    0.6346    0.9346 N   0  0  0  0  0  0  0  0  0  0  0  0
    4.1500    0.9749   -0.0505 C   0  0  0  0  0  0  0  0  0  0  0  0
    3.6845    1.1371   -1.2271 O   0  0  0  0  0  0  0  0  0  0  0  0
    5.5501    1.1194    0.2647 C   0  0  0  0  0  0  0  0  0  0  0  0
    6.0981    0.9760    1.5158 C   0  0  0  0  0  0  0  0  0  0  0  0
    7.4743    1.1405    1.6912 C   0  0  0  0  0  0  0  0  0  0  0  0
    8.3042    1.4461    0.6288 C   0  0  0  0  0  0  0  0  0  0  0  0
    7.7596    1.5907   -0.6277 C   0  0  0  0  0  0  0  0  0  0  0  0
    6.4096    1.4261   -0.7802 C   0  0  0  0  0  0  0  0  0  0  0  0
    0.6414    1.9602    0.5219 S   0  0  0  0  0  0  0  0  0  0  0  0
   -0.6781    0.9675   -0.1171 C   0  0  0  0  0  0  0  0  0  0  0  0
   -1.9722    1.3761   -0.4007 C   0  0  0  0  0  0  0  0  0  0  0  0
   -2.3420    2.6822   -0.1836 O   0  0  0  0  0  0  0  0  0  0  0  0
   -2.8938    0.4480   -0.9085 C   0  0  0  0  0  0  0  0  0  0  0  0
   -4.2335    0.9261   -1.2206 C   0  0  0  0  0  0  0  0  0  0  0  0
   -5.0818    1.1905   -0.1194 N   0  0  0  0  0  0  0  0  0  0  0  0
   -6.3208    1.7636   -0.6885 C   0  0  0  0  0  0  0  0  0  0  0  0
   -7.2400    2.1016    0.4384 C   0  0  0  0  0  0  0  0  0  0  0  0
   -5.5091   -0.0162    0.5380 C   0  0  0  0  0  0  0  0  0  0  0  0
   -4.4566   -0.7518    1.3051 C   0  0  0  0  0  0  0  0  0  0  0  0
   -2.4121   -0.8216   -1.0828 C   0  0  0  0  0  0  0  0  0  0  0  0
   -1.1245   -1.2134   -0.7966 C   0  0  0  0  0  0  0  0  0  0  0  0
   -0.1900   -0.2778   -0.2834 C   0  0  0  0  0  0  0  0  0  0  0  0
    2.1717   -5.4217   -1.7367 H   0  0  0  0  0  0  0  0  0  0  0  0
    1.8970   -4.7288   -0.0514 H   0  0  0  0  0  0  0  0  0  0  0  0
    0.9859   -4.0960   -1.4937 H   0  0  0  0  0  0  0  0  0  0  0  0
    3.7683   -3.5720   -0.5049 H   0  0  0  0  0  0  0  0  0  0  0  0
    3.5801   -3.6229   -2.2928 H   0  0  0  0  0  0  0  0  0  0  0  0
    3.4644    0.4834    1.9338 H   0  0  0  0  0  0  0  0  0  0  0  0
    5.4441    0.7370    2.3430 H   0  0  0  0  0  0  0  0  0  0  0  0
    7.9136    1.0293    2.6738 H   0  0  0  0  0  0  0  0  0  0  0  0
    9.3713    1.5823    0.7207 H   0  0  0  0  0  0  0  0  0  0  0  0
    8.3771    1.8300   -1.4848 H   0  0  0  0  0  0  0  0  0  0  0  0
    6.0076    1.5479   -1.7865 H   0  0  0  0  0  0  0  0  0  0  0  0
   -2.3644    3.1306    0.7151 H   0  0  0  0  0  0  0  0  0  0  0  0
   -4.7001    0.1365   -1.8930 H   0  0  0  0  0  0  0  0  0  0  0  0
   -4.1660    1.8178   -1.9182 H   0  0  0  0  0  0  0  0  0  0  0  0
   -6.7660    0.9711   -1.3259 H   0  0  0  0  0  0  0  0  0  0  0  0
   -6.0745    2.6057   -1.3665 H   0  0  0  0  0  0  0  0  0  0  0  0
   -7.7284    3.0997    0.2630 H   0  0  0  0  0  0  0  0  0  0  0  0
   -8.0223    1.3290    0.5734 H   0  0  0  0  0  0  0  0  0  0  0  0
   -6.7220    2.2202    1.4347 H   0  0  0  0  0  0  0  0  0  0  0  0
   -6.3277    0.2538    1.2704 H   0  0  0  0  0  0  0  0  0  0  0  0
   -6.0106   -0.7081   -0.2125 H   0  0  0  0  0  0  0  0  0  0  0  0
   -4.3068   -1.7496    0.8252 H   0  0  0  0  0  0  0  0  0  0  0  0
   -3.5460   -0.1734    1.4524 H   0  0  0  0  0  0  0  0  0  0  0  0
   -4.8563   -1.0408    2.3360 H   0  0  0  0  0  0  0  0  0  0  0  0
   -3.1012   -1.5594   -1.4735 H   0  0  0  0  0  0  0  0  0  0  0  0
   -0.8682   -2.2386   -0.9759 H   0  0  0  0  0  0  0  0  0  0  0  0
  1  2  1  0
  2  3  1  0
  3  4  1  0
  4  5  2  0
  4  6  1  0
  6  7  2  0
  7  8  1  0
  8  9  1  0
  9 10  2  0
  9 11  1  0
 11 12  2  0
 12 13  1  0
 13 14  2  0
 14 15  1  0
 15 16  2  0
  7 17  1  0
 17 18  1  0
 18 19  2  0
 19 20  1  0
 19 21  1  0
 21 22  1  0
 22 23  1  0
 23 24  1  0
 24 25  1  0
 23 26  1  0
 26 27  1  0
 21 28  2  0
 28 29  1  0
 29 30  2  0
 30  6  1  0
 16 11  1  0
 30 18  1  0
  1 31  1  0
  1 32  1  0
  1 33  1  0
  2 34  1  0
  2 35  1  0
  8 36  1  0
 12 37  1  0
 13 38  1  0
 14 39  1  0
 15 40  1  0
 16 41  1  0
 20 42  1  0
 22 43  1  0
 22 44  1  0
 24 45  1  0
 24 46  1  0
 25 47  1  0
 25 48  1  0
 25 49  1  0
 26 50  1  0
 26 51  1  0
 27 52  1  0
 27 53  1  0
 27 54  1  0
 28 55  1  0
 29 56  1  0
M  END
>  <Batch_No>  (40) 
OSSK_999139

>  <EC50_nM>  (40) 
205

>  <Set>  (40) 
Probe-like

>  <Molecular_Weight>  (40) 
426.52853

>  <ALogP>  (40) 
4.334

$$$$
MMV011099
     RDKit          3D

 34 37  0  0  0  0  0  0  0  0999 V2000
   -2.5186    1.3968   -0.1248 N   0  0  0  0  0  0  0  0  0  0  0  0
   -2.0868    2.6190   -0.3486 N   0  0  0  0  0  0  0  0  0  0  0  0
   -3.0520    3.3322   -0.9413 C   0  0  0  0  0  0  0  0  0  0  0  0
   -4.1393    2.5455   -1.1068 N   0  0  0  0  0  0  0  0  0  0  0  0
   -3.7725    1.3386   -0.5837 C   0  0  0  0  0  0  0  0  0  0  0  0
   -4.5470    0.2388   -0.5284 N   0  0  0  0  0  0  0  0  0  0  0  0
   -4.0153   -0.8580    0.0227 C   0  0  0  0  0  0  0  0  0  0  0  0
   -4.8740   -2.0900    0.1208 C   0  0  0  0  0  0  0  0  0  0  0  0
   -2.7290   -0.8250    0.5009 C   0  0  0  0  0  0  0  0  0  0  0  0
   -1.9343    0.3430    0.4315 C   0  0  0  0  0  0  0  0  0  0  0  0
   -0.6732    0.2514    1.0049 N   0  0  0  0  0  0  0  0  0  0  0  0
    0.6131    0.3072    0.4456 C   0  0  0  0  0  0  0  0  0  0  0  0
    1.0415    1.1596   -0.5410 C   0  0  0  0  0  0  0  0  0  0  0  0
    2.3651    1.1334   -1.0089 C   0  0  0  0  0  0  0  0  0  0  0  0
    3.2916    0.2327   -0.4845 C   0  0  0  0  0  0  0  0  0  0  0  0
    4.5742    0.2336   -0.9751 C   0  0  0  0  0  0  0  0  0  0  0  0
    5.4636   -0.6806   -0.4418 C   0  0  0  0  0  0  0  0  0  0  0  0
    5.0538   -1.5638    0.5599 C   0  0  0  0  0  0  0  0  0  0  0  0
    3.7426   -1.5464    1.0487 C   0  0  0  0  0  0  0  0  0  0  0  0
    2.8585   -0.6353    0.5145 C   0  0  0  0  0  0  0  0  0  0  0  0
    1.5624   -0.5834    0.9501 C   0  0  0  0  0  0  0  0  0  0  0  0
   -2.9110    4.3740   -1.2186 H   0  0  0  0  0  0  0  0  0  0  0  0
   -5.5822   -2.1709   -0.7059 H   0  0  0  0  0  0  0  0  0  0  0  0
   -5.4428   -2.0569    1.0833 H   0  0  0  0  0  0  0  0  0  0  0  0
   -4.2335   -2.9902    0.1590 H   0  0  0  0  0  0  0  0  0  0  0  0
   -2.3476   -1.7355    0.9326 H   0  0  0  0  0  0  0  0  0  0  0  0
   -0.6786    0.1174    2.0792 H   0  0  0  0  0  0  0  0  0  0  0  0
    0.4064    1.8829   -1.0149 H   0  0  0  0  0  0  0  0  0  0  0  0
    2.6586    1.8225   -1.7891 H   0  0  0  0  0  0  0  0  0  0  0  0
    4.8727    0.9187   -1.7465 H   0  0  0  0  0  0  0  0  0  0  0  0
    6.4947   -0.7135   -0.8010 H   0  0  0  0  0  0  0  0  0  0  0  0
    5.8013   -2.2487    0.9322 H   0  0  0  0  0  0  0  0  0  0  0  0
    3.4460   -2.2507    1.8378 H   0  0  0  0  0  0  0  0  0  0  0  0
    1.2915   -1.2983    1.7375 H   0  0  0  0  0  0  0  0  0  0  0  0
  1  2  1  0
  2  3  2  0
  3  4  1  0
  1  5  1  0
  5  6  1  0
  6  7  2  0
  7  8  1  0
  7  9  1  0
  9 10  2  0
 10 11  1  0
 11 12  1  0
 12 13  2  0
 13 14  1  0
 14 15  2  0
 15 16  1  0
 16 17  2  0
 17 18  1  0
 18 19  2  0
 15 20  1  0
 12 21  1  0
 10  1  1  0
  5  4  2  0
 20 19  1  0
 21 20  2  0
  3 22  1  0
  8 23  1  0
  8 24  1  0
  8 25  1  0
  9 26  1  0
 11 27  1  0
 13 28  1  0
 14 29  1  0
 16 30  1  0
 17 31  1  0
 18 32  1  0
 19 33  1  0
 21 34  1  0
M  END
>  <Batch_No>  (41) 
BAS 1083130

>  <EC50_nM>  (41) 
242

>  <Set>  (41) 
Drug-like

>  <Molecular_Weight>  (41) 
275.30791

>  <ALogP>  (41) 
3.52

$$$$
MMV000642
     RDKit          3D

 57 60  0  0  0  0  0  0  0  0999 V2000
    8.0063    1.2637   -0.3065 C   0  0  0  0  0  0  0  0  0  0  0  0
    6.8279    1.9219    0.1209 O   0  0  0  0  0  0  0  0  0  0  0  0
    5.6358    1.2115    0.0795 C   0  0  0  0  0  0  0  0  0  0  0  0
    5.5336   -0.0757   -0.3462 C   0  0  0  0  0  0  0  0  0  0  0  0
    4.3235   -0.7217   -0.3624 C   0  0  0  0  0  0  0  0  0  0  0  0
    3.1342   -0.1057    0.0523 C   0  0  0  0  0  0  0  0  0  0  0  0
    1.9377   -0.8464    0.0012 N   0  0  0  0  0  0  0  0  0  0  0  0
    0.6530   -0.4153    0.3684 C   0  0  0  0  0  0  0  0  0  0  0  0
    0.4789    0.7329    0.7975 O   0  0  0  0  0  0  0  0  0  0  0  0
   -0.5818   -1.2807    0.2775 C   0  0  0  0  0  0  0  0  0  0  0  0
   -1.6950   -0.6793    1.0984 C   0  0  0  0  0  0  0  0  0  0  0  0
   -2.5152    0.2819    0.3869 N   0  0  0  0  0  0  0  0  0  0  0  0
   -3.0603    1.4737    0.9480 C   0  0  0  0  0  0  0  0  0  0  0  0
   -2.2524    2.7130    0.8510 C   0  0  0  0  0  0  0  0  0  0  0  0
   -3.0777    3.8224    1.5247 C   0  0  0  0  0  0  0  0  0  0  0  0
   -1.9237    3.1517   -0.5343 C   0  0  0  0  0  0  0  0  0  0  0  0
   -2.8070   -0.0049   -0.9846 C   0  0  0  0  0  0  0  0  0  0  0  0
   -3.7576    0.5862   -1.5593 O   0  0  0  0  0  0  0  0  0  0  0  0
   -2.0049   -0.9795   -1.7141 C   0  0  0  0  0  0  0  0  0  0  0  0
   -2.3765   -1.2512   -3.0098 C   0  0  0  0  0  0  0  0  0  0  0  0
   -1.7264   -2.1944   -3.7720 C   0  0  0  0  0  0  0  0  0  0  0  0
   -0.6767   -2.8621   -3.1756 C   0  0  0  0  0  0  0  0  0  0  0  0
   -0.3026   -2.5847   -1.8653 C   0  0  0  0  0  0  0  0  0  0  0  0
   -0.9399   -1.6441   -1.0890 C   0  0  0  0  0  0  0  0  0  0  0  0
   -2.5080   -1.7705    1.6939 C   0  0  0  0  0  0  0  0  0  0  0  0
   -3.5602   -2.4763    1.1326 C   0  0  0  0  0  0  0  0  0  0  0  0
   -4.1549   -3.4259    1.8434 C   0  0  0  0  0  0  0  0  0  0  0  0
   -3.6925   -3.6697    3.1247 C   0  0  0  0  0  0  0  0  0  0  0  0
   -2.3004   -2.4355    3.3070 S   0  0  0  0  0  0  0  0  0  0  0  0
    3.2637    1.1915    0.4768 C   0  0  0  0  0  0  0  0  0  0  0  0
    4.4985    1.8547    0.4947 C   0  0  0  0  0  0  0  0  0  0  0  0
    4.5869    3.5222    1.0536 Cl  0  0  0  0  0  0  0  0  0  0  0  0
    8.8576    1.9164    0.0429 H   0  0  0  0  0  0  0  0  0  0  0  0
    8.1008    0.2627    0.1419 H   0  0  0  0  0  0  0  0  0  0  0  0
    8.0438    1.1524   -1.4207 H   0  0  0  0  0  0  0  0  0  0  0  0
    6.4234   -0.5840   -0.6728 H   0  0  0  0  0  0  0  0  0  0  0  0
    4.3295   -1.7515   -0.7179 H   0  0  0  0  0  0  0  0  0  0  0  0
    2.0173   -1.8394   -0.3456 H   0  0  0  0  0  0  0  0  0  0  0  0
   -0.2834   -2.2170    0.8110 H   0  0  0  0  0  0  0  0  0  0  0  0
   -1.1951   -0.1736    1.9845 H   0  0  0  0  0  0  0  0  0  0  0  0
   -4.0836    1.5935    0.5151 H   0  0  0  0  0  0  0  0  0  0  0  0
   -3.2664    1.3255    2.0514 H   0  0  0  0  0  0  0  0  0  0  0  0
   -1.3161    2.6765    1.4444 H   0  0  0  0  0  0  0  0  0  0  0  0
   -3.2558    3.4738    2.5723 H   0  0  0  0  0  0  0  0  0  0  0  0
   -4.0359    3.9656    0.9802 H   0  0  0  0  0  0  0  0  0  0  0  0
   -2.4984    4.7676    1.6094 H   0  0  0  0  0  0  0  0  0  0  0  0
   -1.6041    4.2144   -0.5533 H   0  0  0  0  0  0  0  0  0  0  0  0
   -2.8810    3.1566   -1.1342 H   0  0  0  0  0  0  0  0  0  0  0  0
   -1.1361    2.5672   -1.0217 H   0  0  0  0  0  0  0  0  0  0  0  0
   -3.1993   -0.7264   -3.4734 H   0  0  0  0  0  0  0  0  0  0  0  0
   -1.9649   -2.4503   -4.7786 H   0  0  0  0  0  0  0  0  0  0  0  0
   -0.1372   -3.6194   -3.7512 H   0  0  0  0  0  0  0  0  0  0  0  0
    0.5192   -3.1668   -1.4835 H   0  0  0  0  0  0  0  0  0  0  0  0
   -3.8699   -2.2140    0.0941 H   0  0  0  0  0  0  0  0  0  0  0  0
   -5.0040   -4.0358    1.4653 H   0  0  0  0  0  0  0  0  0  0  0  0
   -3.9614   -4.3499    3.9149 H   0  0  0  0  0  0  0  0  0  0  0  0
    2.4347    1.7522    0.8110 H   0  0  0  0  0  0  0  0  0  0  0  0
  1  2  1  0
  2  3  1  0
  3  4  2  0
  4  5  1  0
  5  6  2  0
  6  7  1  0
  7  8  1  0
  8  9  2  0
  8 10  1  0
 10 11  1  0
 11 12  1  0
 12 13  1  0
 13 14  1  0
 14 15  1  0
 14 16  1  0
 12 17  1  0
 17 18  2  0
 17 19  1  0
 19 20  2  0
 20 21  1  0
 21 22  2  0
 22 23  1  0
 23 24  2  0
 11 25  1  0
 25 26  2  0
 26 27  1  0
 27 28  2  0
 28 29  1  0
  6 30  1  0
 30 31  2  0
 31 32  1  0
 31  3  1  0
 24 10  1  0
 24 19  1  0
 29 25  1  0
  1 33  1  0
  1 34  1  0
  1 35  1  0
  4 36  1  0
  5 37  1  0
  7 38  1  0
 10 39  1  0
 11 40  1  0
 13 41  1  0
 13 42  1  0
 14 43  1  0
 15 44  1  0
 15 45  1  0
 15 46  1  0
 16 47  1  0
 16 48  1  0
 16 49  1  0
 20 50  1  0
 21 51  1  0
 22 52  1  0
 23 53  1  0
 26 54  1  0
 27 55  1  0
 28 56  1  0
 30 57  1  0
M  END
>  <Batch_No>  (42) 
E456-0694

>  <EC50_nM>  (42) 
20.2

>  <Set>  (42) 
Probe-like

>  <Molecular_Weight>  (42) 
468.9956

>  <ALogP>  (42) 
5.092

$$$$
MMV666600
     RDKit          3D

 55 58  0  0  0  0  0  0  0  0999 V2000
   -0.3605    4.5400    1.6684 C   0  0  0  0  0  0  0  0  0  0  0  0
   -0.4284    3.9502    0.2699 C   0  0  0  0  0  0  0  0  0  0  0  0
   -1.1658    2.6962    0.4354 O   0  0  0  0  0  0  0  0  0  0  0  0
   -1.3443    1.8874   -0.6521 C   0  0  0  0  0  0  0  0  0  0  0  0
   -0.8459    2.3162   -1.7659 O   0  0  0  0  0  0  0  0  0  0  0  0
   -2.0123    0.6098   -0.7006 C   0  0  0  0  0  0  0  0  0  0  0  0
   -3.2858    0.2149   -0.9526 C   0  0  0  0  0  0  0  0  0  0  0  0
   -4.3911    1.1664   -1.2712 C   0  0  0  0  0  0  0  0  0  0  0  0
   -3.3826   -1.1400   -0.8539 N   0  0  0  0  0  0  0  0  0  0  0  0
   -4.5863   -1.8679   -1.0576 C   0  0  0  0  0  0  0  0  0  0  0  0
   -4.7478   -2.7824   -2.0782 C   0  0  0  0  0  0  0  0  0  0  0  0
   -5.9352   -3.4667   -2.2669 C   0  0  0  0  0  0  0  0  0  0  0  0
   -6.9641   -3.1847   -1.3695 C   0  0  0  0  0  0  0  0  0  0  0  0
   -8.5177   -4.0186   -1.5435 Cl  0  0  0  0  0  0  0  0  0  0  0  0
   -6.7979   -2.2804   -0.3631 C   0  0  0  0  0  0  0  0  0  0  0  0
   -5.6113   -1.5874   -0.1622 C   0  0  0  0  0  0  0  0  0  0  0  0
   -2.1506   -1.6413   -0.5313 C   0  0  0  0  0  0  0  0  0  0  0  0
   -1.6538   -2.9132   -0.2904 C   0  0  0  0  0  0  0  0  0  0  0  0
   -0.3108   -3.0846    0.0460 C   0  0  0  0  0  0  0  0  0  0  0  0
    0.5606   -2.0340    0.1510 C   0  0  0  0  0  0  0  0  0  0  0  0
    1.8900   -2.2870    0.4973 O   0  0  0  0  0  0  0  0  0  0  0  0
    2.8989   -1.3857    0.5461 C   0  0  0  0  0  0  0  0  0  0  0  0
    2.7456   -0.1892    0.3032 O   0  0  0  0  0  0  0  0  0  0  0  0
    4.3000   -1.7789    0.9075 C   0  0  0  0  0  0  0  0  0  0  0  0
    5.2720   -0.9477    1.0479 C   0  0  0  0  0  0  0  0  0  0  0  0
    6.1159    0.1108    1.1390 C   0  0  0  0  0  0  0  0  0  0  0  0
    5.5594    1.4283    1.1320 C   0  0  0  0  0  0  0  0  0  0  0  0
    6.3132    2.5605    1.1680 C   0  0  0  0  0  0  0  0  0  0  0  0
    7.6714    2.4351    1.2139 C   0  0  0  0  0  0  0  0  0  0  0  0
    8.2967    1.2154    1.2243 C   0  0  0  0  0  0  0  0  0  0  0  0
    7.5012    0.1013    1.1867 C   0  0  0  0  0  0  0  0  0  0  0  0
    0.0634   -0.7752   -0.0893 C   0  0  0  0  0  0  0  0  0  0  0  0
   -1.2831   -0.5759   -0.4300 C   0  0  0  0  0  0  0  0  0  0  0  0
   -1.3620    4.5685    2.1479 H   0  0  0  0  0  0  0  0  0  0  0  0
    0.0660    5.5387    1.5902 H   0  0  0  0  0  0  0  0  0  0  0  0
    0.3467    3.9546    2.2991 H   0  0  0  0  0  0  0  0  0  0  0  0
   -0.9343    4.5914   -0.4629 H   0  0  0  0  0  0  0  0  0  0  0  0
    0.5475    3.6256   -0.0840 H   0  0  0  0  0  0  0  0  0  0  0  0
   -4.7466    1.6907   -0.3271 H   0  0  0  0  0  0  0  0  0  0  0  0
   -3.9391    1.9693   -1.8847 H   0  0  0  0  0  0  0  0  0  0  0  0
   -5.1962    0.7194   -1.8422 H   0  0  0  0  0  0  0  0  0  0  0  0
   -3.8937   -2.9703   -2.7455 H   0  0  0  0  0  0  0  0  0  0  0  0
   -6.0918   -4.1837   -3.0528 H   0  0  0  0  0  0  0  0  0  0  0  0
   -7.5934   -2.0574    0.3517 H   0  0  0  0  0  0  0  0  0  0  0  0
   -5.4976   -0.8760    0.6355 H   0  0  0  0  0  0  0  0  0  0  0  0
   -2.3153   -3.7627   -0.3673 H   0  0  0  0  0  0  0  0  0  0  0  0
    0.0073   -4.1024    0.2192 H   0  0  0  0  0  0  0  0  0  0  0  0
    4.3626   -2.8844    1.0427 H   0  0  0  0  0  0  0  0  0  0  0  0
    6.1234   -1.9114    1.3928 H   0  0  0  0  0  0  0  0  0  0  0  0
    4.4882    1.5586    1.1146 H   0  0  0  0  0  0  0  0  0  0  0  0
    5.8714    3.5604    1.1628 H   0  0  0  0  0  0  0  0  0  0  0  0
    8.2762    3.3136    1.2398 H   0  0  0  0  0  0  0  0  0  0  0  0
    9.3602    1.1330    1.2506 H   0  0  0  0  0  0  0  0  0  0  0  0
    8.0500   -0.8602    1.1768 H   0  0  0  0  0  0  0  0  0  0  0  0
    0.6578    0.0929   -0.0281 H   0  0  0  0  0  0  0  0  0  0  0  0
  1  2  1  0
  2  3  1  0
  3  4  1  0
  4  5  2  0
  4  6  1  0
  6  7  2  0
  7  8  1  0
  7  9  1  0
  9 10  1  0
 10 11  2  0
 11 12  1  0
 12 13  2  0
 13 14  1  0
 13 15  1  0
 15 16  2  0
  9 17  1  0
 17 18  2  0
 18 19  1  0
 19 20  2  0
 20 21  1  0
 21 22  1  0
 22 23  2  0
 22 24  1  0
 24 25  2  3
 25 26  1  0
 26 27  2  0
 27 28  1  0
 28 29  2  0
 29 30  1  0
 30 31  2  0
 20 32  1  0
 32 33  2  0
 33  6  1  0
 16 10  1  0
 33 17  1  0
 31 26  1  0
  1 34  1  0
  1 35  1  0
  1 36  1  0
  2 37  1  0
  2 38  1  0
  8 39  1  0
  8 40  1  0
  8 41  1  0
 11 42  1  0
 12 43  1  0
 15 44  1  0
 16 45  1  0
 18 46  1  0
 19 47  1  0
 24 48  1  0
 25 49  1  0
 27 50  1  0
 28 51  1  0
 29 52  1  0
 30 53  1  0
 31 54  1  0
 32 55  1  0
M  END
>  <Batch_No>  (43) 
2729-0445

>  <EC50_nM>  (43) 
215.5

>  <Set>  (43) 
Probe-like

>  <Molecular_Weight>  (43) 
459.92087

>  <ALogP>  (43) 
6.819

$$$$
MMV006172
     RDKit          3D

 52 56  0  0  0  0  0  0  0  0999 V2000
    7.0381    0.8643   -0.3196 C   0  0  0  0  0  0  0  0  0  0  0  0
    6.0434   -0.1855   -0.3918 N   0  0  0  0  0  0  0  0  0  0  0  0
    5.4443   -0.3639    0.9081 C   0  0  0  0  0  0  0  0  0  0  0  0
    4.2940    0.6450    1.0276 C   0  0  0  0  0  0  0  0  0  0  0  0
    3.2648    0.1475    0.1363 N   0  0  0  0  0  0  0  0  0  0  0  0
    3.6918   -0.4580   -1.1000 C   0  0  0  0  0  0  0  0  0  0  0  0
    5.0793    0.0582   -1.4382 C   0  0  0  0  0  0  0  0  0  0  0  0
    1.8864    0.2400    0.4422 C   0  0  0  0  0  0  0  0  0  0  0  0
    1.4115    0.8198    1.5995 C   0  0  0  0  0  0  0  0  0  0  0  0
    0.0638    0.9001    1.8806 C   0  0  0  0  0  0  0  0  0  0  0  0
   -0.8766    0.4005    1.0104 C   0  0  0  0  0  0  0  0  0  0  0  0
   -2.2513    0.4847    1.3013 N   0  0  0  0  0  0  0  0  0  0  0  0
   -3.2795   -0.0107    0.4448 C   0  0  0  0  0  0  0  0  0  0  0  0
   -3.7814    0.8653   -0.4973 C   0  0  0  0  0  0  0  0  0  0  0  0
   -3.2889    2.1658   -0.5854 C   0  0  0  0  0  0  0  0  0  0  0  0
   -3.7734    3.0656   -1.5202 C   0  0  0  0  0  0  0  0  0  0  0  0
   -4.7828    2.6611   -2.3994 C   0  0  0  0  0  0  0  0  0  0  0  0
   -5.2713    1.3591   -2.3064 C   0  0  0  0  0  0  0  0  0  0  0  0
   -4.7807    0.4692   -1.3699 C   0  0  0  0  0  0  0  0  0  0  0  0
   -5.2404   -0.7962   -1.2635 N   0  0  0  0  0  0  0  0  0  0  0  0
   -4.7521   -1.6675   -0.3379 C   0  0  0  0  0  0  0  0  0  0  0  0
   -5.2893   -2.9550   -0.3033 C   0  0  0  0  0  0  0  0  0  0  0  0
   -4.7814   -3.8369    0.6480 C   0  0  0  0  0  0  0  0  0  0  0  0
   -3.7791   -3.4503    1.5280 C   0  0  0  0  0  0  0  0  0  0  0  0
   -3.2514   -2.1629    1.4833 C   0  0  0  0  0  0  0  0  0  0  0  0
   -3.7649   -1.3009    0.5356 C   0  0  0  0  0  0  0  0  0  0  0  0
   -0.4239   -0.1838   -0.1537 C   0  0  0  0  0  0  0  0  0  0  0  0
    0.9460   -0.2619   -0.4326 C   0  0  0  0  0  0  0  0  0  0  0  0
    7.2737    1.1708   -1.3804 H   0  0  0  0  0  0  0  0  0  0  0  0
    7.9873    0.5022    0.1401 H   0  0  0  0  0  0  0  0  0  0  0  0
    6.6834    1.7791    0.1798 H   0  0  0  0  0  0  0  0  0  0  0  0
    5.0587   -1.3973    0.9715 H   0  0  0  0  0  0  0  0  0  0  0  0
    6.2178   -0.1509    1.6792 H   0  0  0  0  0  0  0  0  0  0  0  0
    4.0237    0.6485    2.0837 H   0  0  0  0  0  0  0  0  0  0  0  0
    4.7070    1.6189    0.6658 H   0  0  0  0  0  0  0  0  0  0  0  0
    3.0320   -0.0454   -1.9054 H   0  0  0  0  0  0  0  0  0  0  0  0
    3.7149   -1.5485   -1.0928 H   0  0  0  0  0  0  0  0  0  0  0  0
    5.4631   -0.3481   -2.3771 H   0  0  0  0  0  0  0  0  0  0  0  0
    5.0055    1.1811   -1.5184 H   0  0  0  0  0  0  0  0  0  0  0  0
    2.0904    1.2329    2.3280 H   0  0  0  0  0  0  0  0  0  0  0  0
   -0.2711    1.3615    2.7977 H   0  0  0  0  0  0  0  0  0  0  0  0
   -2.5705    0.9305    2.1890 H   0  0  0  0  0  0  0  0  0  0  0  0
   -2.4984    2.5141    0.0883 H   0  0  0  0  0  0  0  0  0  0  0  0
   -3.3667    4.0879   -1.5688 H   0  0  0  0  0  0  0  0  0  0  0  0
   -5.1746    3.3629   -3.1432 H   0  0  0  0  0  0  0  0  0  0  0  0
   -6.0542    1.0134   -2.9734 H   0  0  0  0  0  0  0  0  0  0  0  0
   -6.0704   -3.2711   -0.9822 H   0  0  0  0  0  0  0  0  0  0  0  0
   -5.1933   -4.8417    0.6828 H   0  0  0  0  0  0  0  0  0  0  0  0
   -3.4112   -4.1667    2.2535 H   0  0  0  0  0  0  0  0  0  0  0  0
   -2.4684   -1.8322    2.1574 H   0  0  0  0  0  0  0  0  0  0  0  0
   -1.1666   -0.5774   -0.8391 H   0  0  0  0  0  0  0  0  0  0  0  0
    1.1928   -0.7372   -1.3674 H   0  0  0  0  0  0  0  0  0  0  0  0
  1  2  1  0
  2  3  1  0
  3  4  1  0
  4  5  1  0
  5  6  1  0
  6  7  1  0
  5  8  1  0
  8  9  2  0
  9 10  1  0
 10 11  2  0
 11 12  1  0
 12 13  1  0
 13 14  1  0
 14 15  2  0
 15 16  1  0
 16 17  2  0
 17 18  1  0
 18 19  2  0
 19 20  1  0
 20 21  2  0
 21 22  1  0
 22 23  2  0
 23 24  1  0
 24 25  2  0
 25 26  1  0
 11 27  1  0
 27 28  2  0
  7  2  1  0
 28  8  1  0
 26 13  2  0
 19 14  1  0
 26 21  1  0
  1 29  1  0
  1 30  1  0
  1 31  1  0
  3 32  1  0
  3 33  1  0
  4 34  1  0
  4 35  1  0
  6 36  1  0
  6 37  1  0
  7 38  1  0
  7 39  1  0
  9 40  1  0
 10 41  1  0
 12 42  1  0
 15 43  1  0
 16 44  1  0
 17 45  1  0
 18 46  1  0
 22 47  1  0
 23 48  1  0
 24 49  1  0
 25 50  1  0
 27 51  1  0
 28 52  1  0
M  END
>  <Batch_No>  (44) 
0075-0068

>  <EC50_nM>  (44) 
141.5

>  <Set>  (44) 
Probe-like

>  <Molecular_Weight>  (44) 
368.47416

>  <ALogP>  (44) 
5.022

$$$$
MMV006309
     RDKit          3D

 38 40  0  0  0  0  0  0  0  0999 V2000
    6.0547    0.8440    1.3081 C   0  0  0  0  0  0  0  0  0  0  0  0
    5.5279    0.2147    0.0884 N   0  0  0  0  0  0  0  0  0  0  0  0
    6.3992   -0.2777   -0.9568 C   0  0  0  0  0  0  0  0  0  0  0  0
    4.1183    0.0906   -0.0598 C   0  0  0  0  0  0  0  0  0  0  0  0
    3.5783   -0.4876   -1.1766 C   0  0  0  0  0  0  0  0  0  0  0  0
    2.2135   -0.6120   -1.3283 C   0  0  0  0  0  0  0  0  0  0  0  0
    1.3166   -0.1564   -0.3547 C   0  0  0  0  0  0  0  0  0  0  0  0
   -0.1270   -0.2891   -0.5176 C   0  0  0  0  0  0  0  0  0  0  0  0
   -1.0094    0.1209    0.3643 C   0  0  0  0  0  0  0  0  0  0  0  0
   -2.4542   -0.0566    0.1121 C   0  0  0  0  0  0  0  0  0  0  0  0
   -2.8220   -0.6465   -1.0405 N   0  0  0  0  0  0  0  0  0  0  0  0
   -4.1295   -0.8376   -1.3297 C   0  0  0  0  0  0  0  0  0  0  0  0
   -4.4937   -1.3828   -2.3931 O   0  0  0  0  0  0  0  0  0  0  0  0
   -5.0889   -0.4208   -0.4289 C   0  0  0  0  0  0  0  0  0  0  0  0
   -6.4312   -0.5726   -0.6369 C   0  0  0  0  0  0  0  0  0  0  0  0
   -7.3592   -0.1353    0.3026 C   0  0  0  0  0  0  0  0  0  0  0  0
   -6.8972    0.4605    1.4601 C   0  0  0  0  0  0  0  0  0  0  0  0
   -5.5367    0.6216    1.6857 C   0  0  0  0  0  0  0  0  0  0  0  0
   -4.6236    0.1825    0.7435 C   0  0  0  0  0  0  0  0  0  0  0  0
   -3.3514    0.3370    0.9620 O   0  0  0  0  0  0  0  0  0  0  0  0
    1.8965    0.4207    0.7570 C   0  0  0  0  0  0  0  0  0  0  0  0
    3.2601    0.5498    0.9182 C   0  0  0  0  0  0  0  0  0  0  0  0
    7.1279    1.0145    1.2403 H   0  0  0  0  0  0  0  0  0  0  0  0
    5.7196    0.2092    2.1523 H   0  0  0  0  0  0  0  0  0  0  0  0
    5.5001    1.8198    1.4331 H   0  0  0  0  0  0  0  0  0  0  0  0
    6.0571   -1.2963   -1.2616 H   0  0  0  0  0  0  0  0  0  0  0  0
    7.4095   -0.4073   -0.4782 H   0  0  0  0  0  0  0  0  0  0  0  0
    6.4394    0.3777   -1.8349 H   0  0  0  0  0  0  0  0  0  0  0  0
    4.1926   -0.8728   -1.9895 H   0  0  0  0  0  0  0  0  0  0  0  0
    1.7691   -1.0679   -2.2077 H   0  0  0  0  0  0  0  0  0  0  0  0
   -0.4737   -0.7577   -1.4291 H   0  0  0  0  0  0  0  0  0  0  0  0
   -0.7271    0.5961    1.2936 H   0  0  0  0  0  0  0  0  0  0  0  0
   -6.7807   -1.0420   -1.5500 H   0  0  0  0  0  0  0  0  0  0  0  0
   -8.4148   -0.2697    0.1089 H   0  0  0  0  0  0  0  0  0  0  0  0
   -7.5772    0.8099    2.2066 H   0  0  0  0  0  0  0  0  0  0  0  0
   -5.2217    1.0989    2.6170 H   0  0  0  0  0  0  0  0  0  0  0  0
    1.2798    0.7999    1.5581 H   0  0  0  0  0  0  0  0  0  0  0  0
    3.6588    1.0202    1.8298 H   0  0  0  0  0  0  0  0  0  0  0  0
  1  2  1  0
  2  3  1  0
  2  4  1  0
  4  5  2  0
  5  6  1  0
  6  7  2  0
  7  8  1  0
  8  9  2  3
  9 10  1  0
 10 11  2  0
 11 12  1  0
 12 13  2  0
 12 14  1  0
 14 15  2  0
 15 16  1  0
 16 17  2  0
 17 18  1  0
 18 19  2  0
 19 20  1  0
  7 21  1  0
 21 22  2  0
 22  4  1  0
 20 10  1  0
 19 14  1  0
  1 23  1  0
  1 24  1  0
  1 25  1  0
  3 26  1  0
  3 27  1  0
  3 28  1  0
  5 29  1  0
  6 30  1  0
  8 31  1  0
  9 32  1  0
 15 33  1  0
 16 34  1  0
 17 35  1  0
 18 36  1  0
 21 37  1  0
 22 38  1  0
M  END
>  <Batch_No>  (45) 
5169-1112

>  <EC50_nM>  (45) 
51.5

>  <Set>  (45) 
Probe-like

>  <Molecular_Weight>  (45) 
292.33184

>  <ALogP>  (45) 
3.77

$$$$
MMV006087
     RDKit          3D

 39 40  0  0  0  0  0  0  0  0999 V2000
    2.9709    0.2149   -0.1733 C   0  0  0  0  0  0  0  0  0  0  0  0
    1.6295   -0.1208   -0.3774 C   0  0  0  0  0  0  0  0  0  0  0  0
    1.3196   -1.4502   -0.1875 C   0  0  0  0  0  0  0  0  0  0  0  0
    2.2854   -2.3919    0.1835 C   0  0  0  0  0  0  0  0  0  0  0  0
    3.5683   -2.0203    0.3688 N   0  0  0  0  0  0  0  0  0  0  0  0
    0.6528    0.8276   -0.7752 N   0  0  0  0  0  0  0  0  0  0  0  0
   -0.7611    0.4647   -0.9621 C   0  0  0  0  0  0  0  0  0  0  0  0
   -1.4646    0.1769    0.3346 C   0  0  0  0  0  0  0  0  0  0  0  0
   -2.8163   -0.1922    0.2580 N   0  0  0  0  0  0  0  0  0  0  0  0
   -3.4156   -0.4348    1.5135 C   0  0  0  0  0  0  0  0  0  0  0  0
   -3.5430    0.8385    2.3172 C   0  0  0  0  0  0  0  0  0  0  0  0
   -3.5992    0.0197   -0.8649 C   0  0  0  0  0  0  0  0  0  0  0  0
   -3.3304   -0.7689   -2.1054 C   0  0  0  0  0  0  0  0  0  0  0  0
    3.3803    1.5174   -0.3379 C   0  0  0  0  0  0  0  0  0  0  0  0
    4.7039    1.8606   -0.1399 C   0  0  0  0  0  0  0  0  0  0  0  0
    5.6384    0.9130    0.2251 C   0  0  0  0  0  0  0  0  0  0  0  0
    7.3056    1.3980    0.4630 Cl  0  0  0  0  0  0  0  0  0  0  0  0
    5.2128   -0.3843    0.3865 C   0  0  0  0  0  0  0  0  0  0  0  0
    3.8879   -0.7342    0.1893 C   0  0  0  0  0  0  0  0  0  0  0  0
    0.3281   -1.8496   -0.3220 H   0  0  0  0  0  0  0  0  0  0  0  0
    2.0011   -3.4390    0.3271 H   0  0  0  0  0  0  0  0  0  0  0  0
    0.8598    1.8328   -0.9605 H   0  0  0  0  0  0  0  0  0  0  0  0
   -0.8137   -0.4916   -1.5624 H   0  0  0  0  0  0  0  0  0  0  0  0
   -1.3214    1.2135   -1.5131 H   0  0  0  0  0  0  0  0  0  0  0  0
   -0.8600   -0.4220    1.0548 H   0  0  0  0  0  0  0  0  0  0  0  0
   -1.4686    1.2000    0.8614 H   0  0  0  0  0  0  0  0  0  0  0  0
   -2.7725   -1.1380    2.1079 H   0  0  0  0  0  0  0  0  0  0  0  0
   -4.4172   -0.9407    1.4118 H   0  0  0  0  0  0  0  0  0  0  0  0
   -4.5773    0.9179    2.6711 H   0  0  0  0  0  0  0  0  0  0  0  0
   -3.2313    1.7341    1.7474 H   0  0  0  0  0  0  0  0  0  0  0  0
   -2.8530    0.8282    3.2095 H   0  0  0  0  0  0  0  0  0  0  0  0
   -4.6752   -0.2010   -0.5859 H   0  0  0  0  0  0  0  0  0  0  0  0
   -3.6471    1.1276   -1.0990 H   0  0  0  0  0  0  0  0  0  0  0  0
   -2.8139   -1.7143   -1.9671 H   0  0  0  0  0  0  0  0  0  0  0  0
   -2.8003   -0.1153   -2.8334 H   0  0  0  0  0  0  0  0  0  0  0  0
   -4.2897   -1.0248   -2.6492 H   0  0  0  0  0  0  0  0  0  0  0  0
    2.7202    2.3246   -0.6212 H   0  0  0  0  0  0  0  0  0  0  0  0
    5.0493    2.9009   -0.2660 H   0  0  0  0  0  0  0  0  0  0  0  0
    5.9573   -1.1127    0.6726 H   0  0  0  0  0  0  0  0  0  0  0  0
  1  2  2  0
  2  3  1  0
  3  4  2  0
  4  5  1  0
  2  6  1  0
  6  7  1  0
  7  8  1  0
  8  9  1  0
  9 10  1  0
 10 11  1  0
  9 12  1  0
 12 13  1  0
  1 14  1  0
 14 15  2  0
 15 16  1  0
 16 17  1  0
 16 18  2  0
  1 19  1  0
 19  5  2  0
 19 18  1  0
  3 20  1  0
  4 21  1  0
  6 22  1  0
  7 23  1  0
  7 24  1  0
  8 25  1  0
  8 26  1  0
 10 27  1  0
 10 28  1  0
 11 29  1  0
 11 30  1  0
 11 31  1  0
 12 32  1  0
 12 33  1  0
 13 34  1  0
 13 35  1  0
 13 36  1  0
 14 37  1  0
 15 38  1  0
 18 39  1  0
M  END
>  <Batch_No>  (46) 
STK205941

>  <EC50_nM>  (46) 
58.1

>  <Set>  (46) 
Drug-like

>  <Molecular_Weight>  (46) 
277.7924

>  <ALogP>  (46) 
3.325

$$$$
MMV020492
     RDKit          3D

 36 38  0  0  0  0  0  0  0  0999 V2000
   -3.5955   -1.5988    1.5645 C   0  0  0  0  0  0  0  0  0  0  0  0
   -3.5456   -1.2919    0.0899 C   0  0  0  0  0  0  0  0  0  0  0  0
   -2.2989   -1.7235   -0.5875 C   0  0  0  0  0  0  0  0  0  0  0  0
   -1.2059   -0.7683   -0.4124 N   0  0  0  0  0  0  0  0  0  0  0  0
   -1.5548    0.6060   -0.2458 C   0  0  0  0  0  0  0  0  0  0  0  0
   -2.9676    0.7638   -0.7854 C   0  0  0  0  0  0  0  0  0  0  0  0
   -3.3600    2.2223   -0.7202 C   0  0  0  0  0  0  0  0  0  0  0  0
   -3.8830    0.0390   -0.0520 O   0  0  0  0  0  0  0  0  0  0  0  0
    0.0984   -1.3154   -0.4359 C   0  0  0  0  0  0  0  0  0  0  0  0
    0.1476   -2.5819   -0.6217 O   0  0  0  0  0  0  0  0  0  0  0  0
    1.2998   -0.6043   -0.2735 C   0  0  0  0  0  0  0  0  0  0  0  0
    1.4628    1.2060   -0.2146 S   0  0  0  0  0  0  0  0  0  0  0  0
    3.2589    1.1608    0.0146 C   0  0  0  0  0  0  0  0  0  0  0  0
    4.1597    2.1989    0.1493 C   0  0  0  0  0  0  0  0  0  0  0  0
    5.4983    1.9221    0.3134 C   0  0  0  0  0  0  0  0  0  0  0  0
    5.8423    0.5878    0.3307 C   0  0  0  0  0  0  0  0  0  0  0  0
    4.9517   -0.4353    0.1977 C   0  0  0  0  0  0  0  0  0  0  0  0
    3.5717   -0.1750    0.0270 C   0  0  0  0  0  0  0  0  0  0  0  0
    2.5821   -1.0670   -0.1188 C   0  0  0  0  0  0  0  0  0  0  0  0
    2.8464   -2.8529   -0.1218 Cl  0  0  0  0  0  0  0  0  0  0  0  0
   -2.6784   -1.1918    2.0248 H   0  0  0  0  0  0  0  0  0  0  0  0
   -3.6608   -2.7085    1.6750 H   0  0  0  0  0  0  0  0  0  0  0  0
   -4.4902   -1.1282    2.0223 H   0  0  0  0  0  0  0  0  0  0  0  0
   -4.3825   -1.8940   -0.3745 H   0  0  0  0  0  0  0  0  0  0  0  0
   -2.4805   -1.9610   -1.6589 H   0  0  0  0  0  0  0  0  0  0  0  0
   -1.9937   -2.6992   -0.0997 H   0  0  0  0  0  0  0  0  0  0  0  0
   -0.9221    1.2065   -0.9610 H   0  0  0  0  0  0  0  0  0  0  0  0
   -1.4501    1.0104    0.7599 H   0  0  0  0  0  0  0  0  0  0  0  0
   -2.9696    0.4770   -1.8659 H   0  0  0  0  0  0  0  0  0  0  0  0
   -3.0516    2.7936   -1.6227 H   0  0  0  0  0  0  0  0  0  0  0  0
   -2.9883    2.6638    0.2221 H   0  0  0  0  0  0  0  0  0  0  0  0
   -4.4839    2.3060   -0.6778 H   0  0  0  0  0  0  0  0  0  0  0  0
    3.7836    3.2192    0.1228 H   0  0  0  0  0  0  0  0  0  0  0  0
    6.2303    2.7032    0.4222 H   0  0  0  0  0  0  0  0  0  0  0  0
    6.8891    0.3516    0.4588 H   0  0  0  0  0  0  0  0  0  0  0  0
    5.3402   -1.4408    0.2307 H   0  0  0  0  0  0  0  0  0  0  0  0
  1  2  1  0
  2  3  1  0
  3  4  1  0
  4  5  1  0
  5  6  1  0
  6  7  1  0
  6  8  1  0
  4  9  1  0
  9 10  2  0
  9 11  1  0
 11 12  1  0
 12 13  1  0
 13 14  2  0
 14 15  1  0
 15 16  2  0
 16 17  1  0
 17 18  2  0
 18 19  1  0
 19 20  1  0
  8  2  1  0
 19 11  2  0
 18 13  1  0
  1 21  1  0
  1 22  1  0
  1 23  1  0
  2 24  1  0
  3 25  1  0
  3 26  1  0
  5 27  1  0
  5 28  1  0
  6 29  1  0
  7 30  1  0
  7 31  1  0
  7 32  1  0
 14 33  1  0
 15 34  1  0
 16 35  1  0
 17 36  1  0
M  END
>  <Batch_No>  (47) 
STK036779

>  <EC50_nM>  (47) 
25.5

>  <Set>  (47) 
Drug-like

>  <Molecular_Weight>  (47) 
309.81103

>  <ALogP>  (47) 
3.504

$$$$
MMV006455
     RDKit          3D

 57 58  0  0  0  0  0  0  0  0999 V2000
   -3.4975    2.9761   -0.5748 C   0  0  0  0  0  0  0  0  0  0  0  0
   -3.4258    2.4640    0.8490 C   0  0  0  0  0  0  0  0  0  0  0  0
   -3.7734    0.9917    0.9240 C   0  0  0  0  0  0  0  0  0  0  0  0
   -2.9031    0.1520    0.1606 N   0  0  0  0  0  0  0  0  0  0  0  0
   -3.3784   -1.2177    0.3228 C   0  0  0  0  0  0  0  0  0  0  0  0
   -4.6896   -1.4665   -0.3561 C   0  0  0  0  0  0  0  0  0  0  0  0
   -4.6034   -1.2326   -1.8521 C   0  0  0  0  0  0  0  0  0  0  0  0
   -1.5008    0.2596    0.4896 C   0  0  0  0  0  0  0  0  0  0  0  0
   -1.1384   -0.3009    1.8128 C   0  0  0  0  0  0  0  0  0  0  0  0
   -1.8037    0.3430    2.8524 O   0  0  0  0  0  0  0  0  0  0  0  0
    0.3338   -0.2630    2.1037 C   0  0  0  0  0  0  0  0  0  0  0  0
    1.1837   -0.7600    1.1795 O   0  0  0  0  0  0  0  0  0  0  0  0
    1.4616   -1.8972    0.5253 C   0  0  0  0  0  0  0  0  0  0  0  0
    0.7249   -3.0739    0.7455 C   0  0  0  0  0  0  0  0  0  0  0  0
    1.0047   -4.2411    0.0706 C   0  0  0  0  0  0  0  0  0  0  0  0
    2.0284   -4.2556   -0.8394 C   0  0  0  0  0  0  0  0  0  0  0  0
    2.7558   -3.1123   -1.0626 C   0  0  0  0  0  0  0  0  0  0  0  0
    2.4945   -1.9127   -0.3909 C   0  0  0  0  0  0  0  0  0  0  0  0
    3.3633   -0.8025   -0.7054 C   0  0  0  0  0  0  0  0  0  0  0  0
    4.2805   -0.9527   -1.5954 O   0  0  0  0  0  0  0  0  0  0  0  0
    3.3204    0.4806   -0.1272 N   0  0  0  0  0  0  0  0  0  0  0  0
    4.2618    1.4636   -0.5580 C   0  0  0  0  0  0  0  0  0  0  0  0
    5.4750    1.4555    0.1447 C   0  0  0  0  0  0  0  0  0  0  0  0
    6.4474    2.3702   -0.1894 C   0  0  0  0  0  0  0  0  0  0  0  0
    6.2306    3.2960   -1.2167 C   0  0  0  0  0  0  0  0  0  0  0  0
    5.0123    3.2755   -1.8949 C   0  0  0  0  0  0  0  0  0  0  0  0
    4.0143    2.3591   -1.5730 C   0  0  0  0  0  0  0  0  0  0  0  0
   -4.5193    2.8447   -0.9964 H   0  0  0  0  0  0  0  0  0  0  0  0
   -3.2978    4.0487   -0.5808 H   0  0  0  0  0  0  0  0  0  0  0  0
   -2.7163    2.4813   -1.1661 H   0  0  0  0  0  0  0  0  0  0  0  0
   -4.2398    2.9866    1.4028 H   0  0  0  0  0  0  0  0  0  0  0  0
   -2.4654    2.7342    1.2778 H   0  0  0  0  0  0  0  0  0  0  0  0
   -3.9082    0.6458    1.9557 H   0  0  0  0  0  0  0  0  0  0  0  0
   -4.7853    0.9183    0.4289 H   0  0  0  0  0  0  0  0  0  0  0  0
   -2.6294   -1.9281   -0.0516 H   0  0  0  0  0  0  0  0  0  0  0  0
   -3.5681   -1.3960    1.4230 H   0  0  0  0  0  0  0  0  0  0  0  0
   -4.9174   -2.5593   -0.1885 H   0  0  0  0  0  0  0  0  0  0  0  0
   -5.5451   -0.9211    0.0355 H   0  0  0  0  0  0  0  0  0  0  0  0
   -3.6030   -1.5634   -2.2336 H   0  0  0  0  0  0  0  0  0  0  0  0
   -5.3872   -1.8440   -2.3295 H   0  0  0  0  0  0  0  0  0  0  0  0
   -4.6995   -0.1643   -2.0658 H   0  0  0  0  0  0  0  0  0  0  0  0
   -1.2608    1.3521    0.3936 H   0  0  0  0  0  0  0  0  0  0  0  0
   -0.9483   -0.2527   -0.3047 H   0  0  0  0  0  0  0  0  0  0  0  0
   -1.5196   -1.3588    1.8477 H   0  0  0  0  0  0  0  0  0  0  0  0
   -1.4535   -0.0401    3.6911 H   0  0  0  0  0  0  0  0  0  0  0  0
    0.6135    0.8238    2.2873 H   0  0  0  0  0  0  0  0  0  0  0  0
    0.4383   -0.7281    3.1327 H   0  0  0  0  0  0  0  0  0  0  0  0
   -0.0833   -3.1191    1.4546 H   0  0  0  0  0  0  0  0  0  0  0  0
    0.4236   -5.1365    0.2515 H   0  0  0  0  0  0  0  0  0  0  0  0
    2.2580   -5.1580   -1.3773 H   0  0  0  0  0  0  0  0  0  0  0  0
    3.5545   -3.1862   -1.7938 H   0  0  0  0  0  0  0  0  0  0  0  0
    2.6343    0.7262    0.5948 H   0  0  0  0  0  0  0  0  0  0  0  0
    5.6682    0.7499    0.9439 H   0  0  0  0  0  0  0  0  0  0  0  0
    7.3743    2.3418    0.3706 H   0  0  0  0  0  0  0  0  0  0  0  0
    7.0169    3.9919   -1.4465 H   0  0  0  0  0  0  0  0  0  0  0  0
    4.8228    3.9878   -2.6974 H   0  0  0  0  0  0  0  0  0  0  0  0
    3.0639    2.3246   -2.0835 H   0  0  0  0  0  0  0  0  0  0  0  0
  1  2  1  0
  2  3  1  0
  3  4  1  0
  4  5  1  0
  5  6  1  0
  6  7  1  0
  4  8  1  0
  8  9  1  0
  9 10  1  0
  9 11  1  0
 11 12  1  0
 12 13  1  0
 13 14  2  0
 14 15  1  0
 15 16  2  0
 16 17  1  0
 17 18  2  0
 18 19  1  0
 19 20  2  0
 19 21  1  0
 21 22  1  0
 22 23  2  0
 23 24  1  0
 24 25  2  0
 25 26  1  0
 26 27  2  0
 18 13  1  0
 27 22  1  0
  1 28  1  0
  1 29  1  0
  1 30  1  0
  2 31  1  0
  2 32  1  0
  3 33  1  0
  3 34  1  0
  5 35  1  0
  5 36  1  0
  6 37  1  0
  6 38  1  0
  7 39  1  0
  7 40  1  0
  7 41  1  0
  8 42  1  0
  8 43  1  0
  9 44  1  0
 10 45  1  0
 11 46  1  0
 11 47  1  0
 14 48  1  0
 15 49  1  0
 16 50  1  0
 17 51  1  0
 21 52  1  0
 23 53  1  0
 24 54  1  0
 25 55  1  0
 26 56  1  0
 27 57  1  0
M  END
>  <Batch_No>  (48) 
STK551213

>  <EC50_nM>  (48) 
196

>  <Set>  (48) 
Drug-like

>  <Molecular_Weight>  (48) 
370.4852

>  <ALogP>  (48) 
3.971

$$$$
MMV665782
     RDKit          3D

 48 51  0  0  0  0  0  0  0  0999 V2000
    4.4383   -0.0817   -3.8095 C   0  0  0  0  0  0  0  0  0  0  0  0
    3.5250    0.4493   -2.8677 O   0  0  0  0  0  0  0  0  0  0  0  0
    3.3276   -0.2857   -1.7037 C   0  0  0  0  0  0  0  0  0  0  0  0
    4.0200   -1.4689   -1.5352 C   0  0  0  0  0  0  0  0  0  0  0  0
    3.8318   -2.2102   -0.3799 C   0  0  0  0  0  0  0  0  0  0  0  0
    2.9495   -1.7214    0.5570 C   0  0  0  0  0  0  0  0  0  0  0  0
    2.7947   -2.4893    1.6755 N   0  0  0  0  0  0  0  0  0  0  0  0
    1.9373   -2.0497    2.6159 C   0  0  0  0  0  0  0  0  0  0  0  0
    1.2350   -0.8706    2.4698 C   0  0  0  0  0  0  0  0  0  0  0  0
    1.3832   -0.0680    1.3243 C   0  0  0  0  0  0  0  0  0  0  0  0
    0.6086    1.1637    1.2773 C   0  0  0  0  0  0  0  0  0  0  0  0
    1.2170    2.2688    0.6997 O   0  0  0  0  0  0  0  0  0  0  0  0
   -0.6347    0.9144    0.4407 C   0  0  0  0  0  0  0  0  0  0  0  0
   -1.4079   -0.3126    0.8512 C   0  0  0  0  0  0  0  0  0  0  0  0
   -2.8692   -0.0096    0.4828 C   0  0  0  0  0  0  0  0  0  0  0  0
   -3.3968    0.9323    1.5085 C   0  0  0  0  0  0  0  0  0  0  0  0
   -2.3571    2.0482    1.6611 C   0  0  0  0  0  0  0  0  0  0  0  0
   -1.5090    2.0995    0.4868 N   0  0  0  0  0  0  0  0  0  0  0  0
   -2.2894    2.0825   -0.7367 C   0  0  0  0  0  0  0  0  0  0  0  0
   -2.8445    0.6798   -0.8831 C   0  0  0  0  0  0  0  0  0  0  0  0
   -3.5769   -1.2885    0.3676 C   0  0  0  0  0  0  0  0  0  0  0  0
   -4.3807   -1.7638    1.3117 C   0  0  0  0  0  0  0  0  0  0  0  0
    2.2586   -0.5377    0.3862 C   0  0  0  0  0  0  0  0  0  0  0  0
    2.4625    0.1778   -0.7673 C   0  0  0  0  0  0  0  0  0  0  0  0
    4.5259    0.5557   -4.7075 H   0  0  0  0  0  0  0  0  0  0  0  0
    4.0624   -1.1034   -4.0543 H   0  0  0  0  0  0  0  0  0  0  0  0
    5.4291   -0.2127   -3.3414 H   0  0  0  0  0  0  0  0  0  0  0  0
    4.7164   -1.8654   -2.2623 H   0  0  0  0  0  0  0  0  0  0  0  0
    4.3676   -3.1412   -0.2322 H   0  0  0  0  0  0  0  0  0  0  0  0
    1.7950   -2.6500    3.5252 H   0  0  0  0  0  0  0  0  0  0  0  0
    0.5668   -0.5899    3.2732 H   0  0  0  0  0  0  0  0  0  0  0  0
    0.2992    1.4813    2.3211 H   0  0  0  0  0  0  0  0  0  0  0  0
    0.5796    2.8738    0.2896 H   0  0  0  0  0  0  0  0  0  0  0  0
   -0.3649    0.7832   -0.6218 H   0  0  0  0  0  0  0  0  0  0  0  0
   -1.1488   -1.1945    0.2246 H   0  0  0  0  0  0  0  0  0  0  0  0
   -1.4183   -0.5098    1.9315 H   0  0  0  0  0  0  0  0  0  0  0  0
   -4.3931    1.3226    1.3155 H   0  0  0  0  0  0  0  0  0  0  0  0
   -3.3865    0.3998    2.5030 H   0  0  0  0  0  0  0  0  0  0  0  0
   -1.6905    1.8843    2.5183 H   0  0  0  0  0  0  0  0  0  0  0  0
   -2.8280    3.0282    1.7810 H   0  0  0  0  0  0  0  0  0  0  0  0
   -1.6024    2.3352   -1.5678 H   0  0  0  0  0  0  0  0  0  0  0  0
   -3.1061    2.8362   -0.7084 H   0  0  0  0  0  0  0  0  0  0  0  0
   -2.2975    0.0748   -1.6169 H   0  0  0  0  0  0  0  0  0  0  0  0
   -3.8891    0.7541   -1.2421 H   0  0  0  0  0  0  0  0  0  0  0  0
   -3.4324   -1.8719   -0.5380 H   0  0  0  0  0  0  0  0  0  0  0  0
   -4.5689   -1.2370    2.2347 H   0  0  0  0  0  0  0  0  0  0  0  0
   -4.8857   -2.7142    1.1880 H   0  0  0  0  0  0  0  0  0  0  0  0
    1.9475    1.1021   -0.9552 H   0  0  0  0  0  0  0  0  0  0  0  0
  1  2  1  0
  2  3  1  0
  3  4  2  0
  4  5  1  0
  5  6  2  0
  6  7  1  0
  7  8  2  0
  8  9  1  0
  9 10  2  0
 10 11  1  0
 11 12  1  0
 11 13  1  0
 13 14  1  0
 14 15  1  0
 15 16  1  0
 16 17  1  0
 17 18  1  0
 18 19  1  0
 19 20  1  0
 15 21  1  0
 21 22  2  0
 10 23  1  0
 23 24  2  0
 24  3  1  0
 23  6  1  0
 18 13  1  0
 20 15  1  0
  1 25  1  0
  1 26  1  0
  1 27  1  0
  4 28  1  0
  5 29  1  0
  8 30  1  0
  9 31  1  0
 11 32  1  0
 12 33  1  0
 13 34  1  0
 14 35  1  0
 14 36  1  0
 16 37  1  0
 16 38  1  0
 17 39  1  0
 17 40  1  0
 19 41  1  0
 19 42  1  0
 20 43  1  0
 20 44  1  0
 21 45  1  0
 22 46  1  0
 22 47  1  0
 24 48  1  0
M  END
>  <Batch_No>  (49) 
AE-562/12222560

>  <EC50_nM>  (49) 
42.3

>  <Set>  (49) 
Drug-like

>  <Molecular_Weight>  (49) 
324.41675

>  <ALogP>  (49) 
2.62

$$$$
MMV665876
     RDKit          3D

 36 39  0  0  0  0  0  0  0  0999 V2000
   -1.0510   -2.8908   -1.0408 C   0  0  0  0  0  0  0  0  0  0  0  0
   -1.7106   -1.9554   -0.0260 C   0  0  0  0  0  0  0  0  0  0  0  0
   -1.9007   -0.5893   -0.5900 C   0  0  0  0  0  0  0  0  0  0  0  0
   -2.5371    0.3793    0.3377 C   0  0  0  0  0  0  0  0  0  0  0  0
   -3.4221    1.3544   -0.0964 C   0  0  0  0  0  0  0  0  0  0  0  0
   -3.9785    2.2234    0.8179 C   0  0  0  0  0  0  0  0  0  0  0  0
   -3.6869    2.1609    2.1611 C   0  0  0  0  0  0  0  0  0  0  0  0
   -2.8078    1.1940    2.5996 C   0  0  0  0  0  0  0  0  0  0  0  0
   -2.2398    0.3102    1.6818 C   0  0  0  0  0  0  0  0  0  0  0  0
   -0.6427   -0.0229   -1.0733 C   0  0  0  0  0  0  0  0  0  0  0  0
    0.5544    0.0621   -0.8056 N   0  0  0  0  0  0  0  0  0  0  0  0
    1.4828    0.6583   -1.4526 N   0  0  0  0  0  0  0  0  0  0  0  0
    2.8330    0.8828   -1.3581 C   0  0  0  0  0  0  0  0  0  0  0  0
    3.2256    1.6263   -2.4235 N   0  0  0  0  0  0  0  0  0  0  0  0
    2.1741    1.8797   -3.1871 N   0  0  0  0  0  0  0  0  0  0  0  0
    1.1306    1.2886   -2.5873 C   0  0  0  0  0  0  0  0  0  0  0  0
   -0.6464    0.9900   -2.7067 S   0  0  0  0  0  0  0  0  0  0  0  0
    3.7328    0.4212   -0.3103 C   0  0  0  0  0  0  0  0  0  0  0  0
    4.4590   -0.7304   -0.2449 C   0  0  0  0  0  0  0  0  0  0  0  0
    5.2294   -0.9618    0.8161 C   0  0  0  0  0  0  0  0  0  0  0  0
    5.2348    0.0227    1.8115 C   0  0  0  0  0  0  0  0  0  0  0  0
    4.0931    1.3377    1.2124 S   0  0  0  0  0  0  0  0  0  0  0  0
   -0.3311   -2.3340   -1.6807 H   0  0  0  0  0  0  0  0  0  0  0  0
   -0.4852   -3.6748   -0.5196 H   0  0  0  0  0  0  0  0  0  0  0  0
   -1.8629   -3.3208   -1.6613 H   0  0  0  0  0  0  0  0  0  0  0  0
   -0.9860   -1.9202    0.8270 H   0  0  0  0  0  0  0  0  0  0  0  0
   -2.6472   -2.4385    0.2793 H   0  0  0  0  0  0  0  0  0  0  0  0
   -2.6416   -0.6915   -1.4373 H   0  0  0  0  0  0  0  0  0  0  0  0
   -3.6667    1.4235   -1.1453 H   0  0  0  0  0  0  0  0  0  0  0  0
   -4.6789    3.0045    0.5183 H   0  0  0  0  0  0  0  0  0  0  0  0
   -4.1109    2.8305    2.8913 H   0  0  0  0  0  0  0  0  0  0  0  0
   -2.5689    1.1344    3.6609 H   0  0  0  0  0  0  0  0  0  0  0  0
   -1.5665   -0.4173    2.0785 H   0  0  0  0  0  0  0  0  0  0  0  0
    4.3904   -1.4611   -1.0920 H   0  0  0  0  0  0  0  0  0  0  0  0
    5.8532   -1.8569    0.9666 H   0  0  0  0  0  0  0  0  0  0  0  0
    5.7763    0.0812    2.7790 H   0  0  0  0  0  0  0  0  0  0  0  0
  1  2  1  0
  2  3  1  0
  3  4  1  0
  4  5  2  0
  5  6  1  0
  6  7  2  0
  7  8  1  0
  8  9  2  0
  3 10  1  0
 10 11  2  0
 11 12  1  0
 12 13  1  0
 13 14  2  0
 14 15  1  0
 15 16  2  0
 16 17  1  0
 13 18  1  0
 18 19  2  0
 19 20  1  0
 20 21  2  0
 21 22  1  0
  9  4  1  0
 17 10  1  0
 16 12  1  0
 22 18  1  0
  1 23  1  0
  1 24  1  0
  1 25  1  0
  2 26  1  0
  2 27  1  0
  3 28  1  0
  5 29  1  0
  6 30  1  0
  7 31  1  0
  8 32  1  0
  9 33  1  0
 19 34  1  0
 20 35  1  0
 21 36  1  0
M  END
>  <Batch_No>  (50) 
OSSL_029888

>  <EC50_nM>  (50) 
259

>  <Set>  (50) 
Drug-like

>  <Molecular_Weight>  (50) 
326.43915

>  <ALogP>  (50) 
4.285

$$$$
MMV666023
     RDKit          3D

 58 63  0  0  0  0  0  0  0  0999 V2000
    3.2576    0.5096    1.1067 C   0  0  0  0  0  0  0  0  0  0  0  0
    3.8511    1.0688   -0.1326 C   0  0  0  0  0  0  0  0  0  0  0  0
    3.0746    1.8906   -0.9275 C   0  0  0  0  0  0  0  0  0  0  0  0
    3.5994    2.4304   -2.0950 C   0  0  0  0  0  0  0  0  0  0  0  0
    4.9052    2.1629   -2.4932 C   0  0  0  0  0  0  0  0  0  0  0  0
    5.6892    1.3344   -1.6927 C   0  0  0  0  0  0  0  0  0  0  0  0
    5.1466    0.8040   -0.5285 C   0  0  0  0  0  0  0  0  0  0  0  0
    2.6095   -0.7517    0.9404 N   0  0  0  0  0  0  0  0  0  0  0  0
    1.3168   -0.9607    0.6286 C   0  0  0  0  0  0  0  0  0  0  0  0
    0.2864    0.0107    0.3899 N   0  0  0  0  0  0  0  0  0  0  0  0
   -0.8228   -0.1068    0.9939 N   0  0  0  0  0  0  0  0  0  0  0  0
   -1.8667    0.8189    0.7950 C   0  0  0  0  0  0  0  0  0  0  0  0
   -3.0626    0.4121    0.1813 C   0  0  0  0  0  0  0  0  0  0  0  0
   -3.1774   -0.9218   -0.2391 N   0  0  0  0  0  0  0  0  0  0  0  0
   -4.2519   -1.5047   -0.9380 C   0  0  0  0  0  0  0  0  0  0  0  0
   -4.9300   -0.9322   -1.9843 C   0  0  0  0  0  0  0  0  0  0  0  0
   -5.9990   -1.5588   -2.6134 C   0  0  0  0  0  0  0  0  0  0  0  0
   -6.4190   -2.8215   -2.1836 C   0  0  0  0  0  0  0  0  0  0  0  0
   -5.7343   -3.4036   -1.1254 C   0  0  0  0  0  0  0  0  0  0  0  0
   -4.6809   -2.7684   -0.5168 C   0  0  0  0  0  0  0  0  0  0  0  0
   -4.0095    1.3850    0.0378 C   0  0  0  0  0  0  0  0  0  0  0  0
   -3.8236    2.7026    0.4640 C   0  0  0  0  0  0  0  0  0  0  0  0
   -2.6440    3.0743    1.0614 C   0  0  0  0  0  0  0  0  0  0  0  0
   -2.4696    4.3729    1.4779 C   0  0  0  0  0  0  0  0  0  0  0  0
   -1.2889    4.7564    2.0791 C   0  0  0  0  0  0  0  0  0  0  0  0
   -0.3029    3.8174    2.2491 C   0  0  0  0  0  0  0  0  0  0  0  0
   -0.4952    2.5108    1.8228 C   0  0  0  0  0  0  0  0  0  0  0  0
   -1.6701    2.1116    1.2199 C   0  0  0  0  0  0  0  0  0  0  0  0
    1.0558   -2.2849    0.5551 N   0  0  0  0  0  0  0  0  0  0  0  0
    2.2021   -2.9226    0.8247 C   0  0  0  0  0  0  0  0  0  0  0  0
    2.4619   -4.2864    0.8756 C   0  0  0  0  0  0  0  0  0  0  0  0
    3.7297   -4.7069    1.1766 C   0  0  0  0  0  0  0  0  0  0  0  0
    4.7421   -3.7856    1.4272 C   0  0  0  0  0  0  0  0  0  0  0  0
    4.4644   -2.4155    1.3720 C   0  0  0  0  0  0  0  0  0  0  0  0
    3.1842   -1.9748    1.0681 C   0  0  0  0  0  0  0  0  0  0  0  0
    4.0489    0.3515    1.8888 H   0  0  0  0  0  0  0  0  0  0  0  0
    2.6008    1.2959    1.5298 H   0  0  0  0  0  0  0  0  0  0  0  0
    2.0567    2.0969   -0.6139 H   0  0  0  0  0  0  0  0  0  0  0  0
    2.9906    3.0758   -2.7193 H   0  0  0  0  0  0  0  0  0  0  0  0
    5.3011    2.5966   -3.4151 H   0  0  0  0  0  0  0  0  0  0  0  0
    6.6939    1.1381   -2.0141 H   0  0  0  0  0  0  0  0  0  0  0  0
    5.7470    0.1626    0.0954 H   0  0  0  0  0  0  0  0  0  0  0  0
   -2.3745   -1.5787   -0.0132 H   0  0  0  0  0  0  0  0  0  0  0  0
   -4.6499    0.0277   -2.3777 H   0  0  0  0  0  0  0  0  0  0  0  0
   -6.5245   -1.0724   -3.4515 H   0  0  0  0  0  0  0  0  0  0  0  0
   -7.2433   -3.3435   -2.6431 H   0  0  0  0  0  0  0  0  0  0  0  0
   -6.0193   -4.3944   -0.7458 H   0  0  0  0  0  0  0  0  0  0  0  0
   -4.1546   -3.2482    0.3171 H   0  0  0  0  0  0  0  0  0  0  0  0
   -4.9508    1.1641   -0.4021 H   0  0  0  0  0  0  0  0  0  0  0  0
   -4.6130    3.4553    0.3287 H   0  0  0  0  0  0  0  0  0  0  0  0
   -3.2264    5.1314    1.3576 H   0  0  0  0  0  0  0  0  0  0  0  0
   -1.1290    5.7717    2.4144 H   0  0  0  0  0  0  0  0  0  0  0  0
    0.6203    4.1449    2.7264 H   0  0  0  0  0  0  0  0  0  0  0  0
    0.2956    1.7926    1.9690 H   0  0  0  0  0  0  0  0  0  0  0  0
    1.6899   -5.0269    0.6842 H   0  0  0  0  0  0  0  0  0  0  0  0
    3.9201   -5.7785    1.2137 H   0  0  0  0  0  0  0  0  0  0  0  0
    5.7575   -4.1311    1.6675 H   0  0  0  0  0  0  0  0  0  0  0  0
    5.2347   -1.6982    1.5625 H   0  0  0  0  0  0  0  0  0  0  0  0
  1  2  1  0
  2  3  2  0
  3  4  1  0
  4  5  2  0
  5  6  1  0
  6  7  2  0
  1  8  1  0
  8  9  1  0
  9 10  1  0
 10 11  2  3
 11 12  1  0
 12 13  1  0
 13 14  1  0
 14 15  1  0
 15 16  2  0
 16 17  1  0
 17 18  2  0
 18 19  1  0
 19 20  2  0
 13 21  2  0
 21 22  1  0
 22 23  2  0
 23 24  1  0
 24 25  2  0
 25 26  1  0
 26 27  2  0
 27 28  1  0
  9 29  2  0
 29 30  1  0
 30 31  2  0
 31 32  1  0
 32 33  2  0
 33 34  1  0
 34 35  2  0
  7  2  1  0
 35  8  1  0
 28 12  2  0
 20 15  1  0
 28 23  1  0
 35 30  1  0
  1 36  1  0
  1 37  1  0
  3 38  1  0
  4 39  1  0
  5 40  1  0
  6 41  1  0
  7 42  1  0
 14 43  1  0
 16 44  1  0
 17 45  1  0
 18 46  1  0
 19 47  1  0
 20 48  1  0
 21 49  1  0
 22 50  1  0
 24 51  1  0
 25 52  1  0
 26 53  1  0
 27 54  1  0
 31 55  1  0
 32 56  1  0
 33 57  1  0
 34 58  1  0
M  END
>  <Batch_No>  (51) 
5566248

>  <EC50_nM>  (51) 
36.8

>  <Set>  (51) 
Probe-like

>  <Molecular_Weight>  (51) 
453.53712

>  <ALogP>  (51) 
8.504

$$$$
MMV009063
     RDKit          3D

 50 53  0  0  0  0  0  0  0  0999 V2000
   -0.4791   -0.5293    2.1248 O   0  0  0  0  0  0  0  0  0  0  0  0
   -0.2449    0.5457    1.3115 C   0  0  0  0  0  0  0  0  0  0  0  0
    1.2595    0.7457    1.1320 C   0  0  0  0  0  0  0  0  0  0  0  0
    1.8607   -0.4340    0.5533 N   0  0  0  0  0  0  0  0  0  0  0  0
    3.2120   -0.2169    0.2208 C   0  0  0  0  0  0  0  0  0  0  0  0
    3.9055   -1.4735   -0.2718 C   0  0  0  0  0  0  0  0  0  0  0  0
    5.1921   -1.1506   -0.9305 C   0  0  0  0  0  0  0  0  0  0  0  0
    5.8093    0.1558   -0.5970 C   0  0  0  0  0  0  0  0  0  0  0  0
    5.2709    0.9561    0.5103 C   0  0  0  0  0  0  0  0  0  0  0  0
    4.1117    0.3497    1.2823 C   0  0  0  0  0  0  0  0  0  0  0  0
   -0.8401    0.4444   -0.0645 C   0  0  0  0  0  0  0  0  0  0  0  0
   -2.2573    0.2928   -0.1001 N   0  0  0  0  0  0  0  0  0  0  0  0
   -2.8688   -0.9257   -0.1185 C   0  0  0  0  0  0  0  0  0  0  0  0
   -2.3840   -2.2213   -0.1235 C   0  0  0  0  0  0  0  0  0  0  0  0
   -3.2881   -3.2818   -0.1480 C   0  0  0  0  0  0  0  0  0  0  0  0
   -4.6379   -3.0122   -0.1664 C   0  0  0  0  0  0  0  0  0  0  0  0
   -5.1316   -1.7146   -0.1616 C   0  0  0  0  0  0  0  0  0  0  0  0
   -4.2278   -0.6920   -0.1376 C   0  0  0  0  0  0  0  0  0  0  0  0
   -4.4034    0.6872   -0.1305 C   0  0  0  0  0  0  0  0  0  0  0  0
   -5.5579    1.4228   -0.1407 C   0  0  0  0  0  0  0  0  0  0  0  0
   -5.4731    2.7990   -0.1282 C   0  0  0  0  0  0  0  0  0  0  0  0
   -4.2135    3.3885   -0.1054 C   0  0  0  0  0  0  0  0  0  0  0  0
   -3.0580    2.6415   -0.0950 C   0  0  0  0  0  0  0  0  0  0  0  0
   -3.1578    1.2717   -0.1076 C   0  0  0  0  0  0  0  0  0  0  0  0
   -0.2237   -1.3822    1.7367 H   0  0  0  0  0  0  0  0  0  0  0  0
   -0.6374    1.4734    1.7889 H   0  0  0  0  0  0  0  0  0  0  0  0
    1.4929    1.6317    0.5243 H   0  0  0  0  0  0  0  0  0  0  0  0
    1.7299    0.9071    2.1488 H   0  0  0  0  0  0  0  0  0  0  0  0
    1.7220   -1.2690    1.1663 H   0  0  0  0  0  0  0  0  0  0  0  0
    3.2389    0.4713   -0.6921 H   0  0  0  0  0  0  0  0  0  0  0  0
    3.2335   -2.0848   -0.9080 H   0  0  0  0  0  0  0  0  0  0  0  0
    4.0776   -2.0872    0.6607 H   0  0  0  0  0  0  0  0  0  0  0  0
    5.9101   -1.9855   -0.6899 H   0  0  0  0  0  0  0  0  0  0  0  0
    5.0411   -1.2586   -2.0361 H   0  0  0  0  0  0  0  0  0  0  0  0
    6.9091    0.0098   -0.3866 H   0  0  0  0  0  0  0  0  0  0  0  0
    5.8130    0.7903   -1.5318 H   0  0  0  0  0  0  0  0  0  0  0  0
    4.8803    1.9500    0.1346 H   0  0  0  0  0  0  0  0  0  0  0  0
    6.0192    1.2554    1.2779 H   0  0  0  0  0  0  0  0  0  0  0  0
    3.6750    1.1834    1.8558 H   0  0  0  0  0  0  0  0  0  0  0  0
    4.4560   -0.4824    1.9609 H   0  0  0  0  0  0  0  0  0  0  0  0
   -0.4877    1.3415   -0.6378 H   0  0  0  0  0  0  0  0  0  0  0  0
   -0.3423   -0.4351   -0.5647 H   0  0  0  0  0  0  0  0  0  0  0  0
   -1.3054   -2.4095   -0.1117 H   0  0  0  0  0  0  0  0  0  0  0  0
   -2.9323   -4.2958   -0.1504 H   0  0  0  0  0  0  0  0  0  0  0  0
   -5.3400   -3.8331   -0.1855 H   0  0  0  0  0  0  0  0  0  0  0  0
   -6.1775   -1.5388   -0.1774 H   0  0  0  0  0  0  0  0  0  0  0  0
   -6.5559    0.9897   -0.1585 H   0  0  0  0  0  0  0  0  0  0  0  0
   -6.3835    3.3875   -0.1361 H   0  0  0  0  0  0  0  0  0  0  0  0
   -4.1149    4.4841   -0.0940 H   0  0  0  0  0  0  0  0  0  0  0  0
   -2.0965    3.1378   -0.0773 H   0  0  0  0  0  0  0  0  0  0  0  0
  1  2  1  0
  2  3  1  0
  3  4  1  0
  4  5  1  0
  5  6  1  0
  6  7  1  0
  7  8  1  0
  8  9  1  0
  9 10  1  0
  2 11  1  0
 11 12  1  0
 12 13  1  0
 13 14  2  0
 14 15  1  0
 15 16  2  0
 16 17  1  0
 17 18  2  0
 18 19  1  0
 19 20  2  0
 20 21  1  0
 21 22  2  0
 22 23  1  0
 23 24  2  0
 10  5  1  0
 24 12  1  0
 18 13  1  0
 24 19  1  0
  1 25  1  0
  2 26  1  0
  3 27  1  0
  3 28  1  0
  4 29  1  0
  5 30  1  0
  6 31  1  0
  6 32  1  0
  7 33  1  0
  7 34  1  0
  8 35  1  0
  8 36  1  0
  9 37  1  0
  9 38  1  0
 10 39  1  0
 10 40  1  0
 11 41  1  0
 11 42  1  0
 14 43  1  0
 15 44  1  0
 16 45  1  0
 17 46  1  0
 20 47  1  0
 21 48  1  0
 22 49  1  0
 23 50  1  0
M  END
>  <Batch_No>  (52) 
1988-0051

>  <EC50_nM>  (52) 
293

>  <Set>  (52) 
Drug-like

>  <Molecular_Weight>  (52) 
322.44394

>  <ALogP>  (52) 
4.479

$$$$
MMV006558
     RDKit          3D

 38 40  0  0  0  0  0  0  0  0999 V2000
    5.5663   -0.2211    0.2968 C   0  0  0  0  0  0  0  0  0  0  0  0
    4.0934   -0.1578    0.3386 C   0  0  0  0  0  0  0  0  0  0  0  0
    3.3807    0.9675    0.7112 C   0  0  0  0  0  0  0  0  0  0  0  0
    1.9868    0.9664    0.7308 C   0  0  0  0  0  0  0  0  0  0  0  0
    1.2220    2.1732    1.1306 C   0  0  0  0  0  0  0  0  0  0  0  0
    1.2924   -0.1712    0.3743 C   0  0  0  0  0  0  0  0  0  0  0  0
   -0.1789   -0.2765    0.3651 C   0  0  0  0  0  0  0  0  0  0  0  0
   -0.6937   -1.0562   -0.7130 N   0  0  0  0  0  0  0  0  0  0  0  0
   -2.0490   -1.4647   -0.4807 C   0  0  0  0  0  0  0  0  0  0  0  0
   -3.0070   -0.3646   -0.2964 C   0  0  0  0  0  0  0  0  0  0  0  0
   -3.5193    0.0110    0.9251 C   0  0  0  0  0  0  0  0  0  0  0  0
   -4.4301    1.0620    1.0585 C   0  0  0  0  0  0  0  0  0  0  0  0
   -4.8309    1.7516   -0.0888 C   0  0  0  0  0  0  0  0  0  0  0  0
   -4.3249    1.3838   -1.3125 C   0  0  0  0  0  0  0  0  0  0  0  0
   -3.4179    0.3318   -1.4169 C   0  0  0  0  0  0  0  0  0  0  0  0
   -2.7910   -0.1102   -2.9894 Cl  0  0  0  0  0  0  0  0  0  0  0  0
    0.0684   -2.1828   -1.1210 C   0  0  0  0  0  0  0  0  0  0  0  0
    1.2516   -2.4132   -0.3477 O   0  0  0  0  0  0  0  0  0  0  0  0
    2.0187   -1.3041   -0.0011 C   0  0  0  0  0  0  0  0  0  0  0  0
    3.3911   -1.2910   -0.0163 C   0  0  0  0  0  0  0  0  0  0  0  0
    5.9352   -0.5270   -0.6885 H   0  0  0  0  0  0  0  0  0  0  0  0
    5.9353    0.8350    0.4553 H   0  0  0  0  0  0  0  0  0  0  0  0
    5.9458   -0.8348    1.1266 H   0  0  0  0  0  0  0  0  0  0  0  0
    3.9470    1.8468    0.9860 H   0  0  0  0  0  0  0  0  0  0  0  0
    1.9497    2.8870    1.6188 H   0  0  0  0  0  0  0  0  0  0  0  0
    0.4254    1.9933    1.8524 H   0  0  0  0  0  0  0  0  0  0  0  0
    0.9112    2.6837    0.1919 H   0  0  0  0  0  0  0  0  0  0  0  0
   -0.7010    0.6788    0.4157 H   0  0  0  0  0  0  0  0  0  0  0  0
   -0.4409   -0.8257    1.3191 H   0  0  0  0  0  0  0  0  0  0  0  0
   -2.4008   -2.0905   -1.3384 H   0  0  0  0  0  0  0  0  0  0  0  0
   -2.1056   -2.1243    0.4095 H   0  0  0  0  0  0  0  0  0  0  0  0
   -3.1935   -0.5415    1.8117 H   0  0  0  0  0  0  0  0  0  0  0  0
   -4.7861    1.2976    2.0379 H   0  0  0  0  0  0  0  0  0  0  0  0
   -5.5362    2.5603    0.0430 H   0  0  0  0  0  0  0  0  0  0  0  0
   -4.6468    1.9282   -2.1846 H   0  0  0  0  0  0  0  0  0  0  0  0
    0.3167   -2.0817   -2.2124 H   0  0  0  0  0  0  0  0  0  0  0  0
   -0.5213   -3.1289   -1.0186 H   0  0  0  0  0  0  0  0  0  0  0  0
    3.9372   -2.1903   -0.3130 H   0  0  0  0  0  0  0  0  0  0  0  0
  1  2  1  0
  2  3  2  0
  3  4  1  0
  4  5  1  0
  4  6  2  0
  6  7  1  0
  7  8  1  0
  8  9  1  0
  9 10  1  0
 10 11  2  0
 11 12  1  0
 12 13  2  0
 13 14  1  0
 14 15  2  0
 15 16  1  0
  8 17  1  0
 17 18  1  0
 18 19  1  0
 19 20  2  0
 20  2  1  0
 19  6  1  0
 15 10  1  0
  1 21  1  0
  1 22  1  0
  1 23  1  0
  3 24  1  0
  5 25  1  0
  5 26  1  0
  5 27  1  0
  7 28  1  0
  7 29  1  0
  9 30  1  0
  9 31  1  0
 11 32  1  0
 12 33  1  0
 13 34  1  0
 14 35  1  0
 17 36  1  0
 17 37  1  0
 20 38  1  0
M  END
>  <Batch_No>  (53) 
C276-0117

>  <EC50_nM>  (53) 
268

>  <Set>  (53) 
Probe-like

>  <Molecular_Weight>  (53) 
287.78392

>  <ALogP>  (53) 
4.908

$$$$
MMV007160
     RDKit          3D

 75 81  0  0  0  0  0  0  0  0999 V2000
   -0.7968    4.6526    4.5280 C   0  0  0  0  0  0  0  0  0  0  0  0
   -0.6729    3.8142    3.3151 C   0  0  0  0  0  0  0  0  0  0  0  0
   -1.5846    3.8170    2.2898 C   0  0  0  0  0  0  0  0  0  0  0  0
   -1.4212    3.0027    1.1599 C   0  0  0  0  0  0  0  0  0  0  0  0
   -0.3349    2.1595    1.0259 C   0  0  0  0  0  0  0  0  0  0  0  0
    0.5748    2.1671    2.0658 C   0  0  0  0  0  0  0  0  0  0  0  0
    0.4128    2.9763    3.1891 C   0  0  0  0  0  0  0  0  0  0  0  0
   -0.1770    1.3505   -0.1120 N   0  0  0  0  0  0  0  0  0  0  0  0
   -1.0440    1.4107   -1.2837 C   0  0  0  0  0  0  0  0  0  0  0  0
   -1.8015    0.1274   -1.3033 N   0  0  0  0  0  0  0  0  0  0  0  0
   -0.9557   -1.0266   -1.2605 C   0  0  0  0  0  0  0  0  0  0  0  0
   -1.4670   -2.2127   -1.7361 C   0  0  0  0  0  0  0  0  0  0  0  0
   -0.7261   -3.3726   -1.7374 C   0  0  0  0  0  0  0  0  0  0  0  0
    0.5565   -3.2971   -1.2397 C   0  0  0  0  0  0  0  0  0  0  0  0
    1.0743   -2.0939   -0.7571 C   0  0  0  0  0  0  0  0  0  0  0  0
    0.3439   -0.9268   -0.7502 C   0  0  0  0  0  0  0  0  0  0  0  0
    0.8986    0.3377   -0.2222 C   0  0  0  0  0  0  0  0  0  0  0  0
    1.7961    0.8910   -1.2477 N   0  0  0  0  0  0  0  0  0  0  0  0
    1.1760    1.1936   -2.4911 C   0  0  0  0  0  0  0  0  0  0  0  0
    1.9530    1.2213   -3.6289 C   0  0  0  0  0  0  0  0  0  0  0  0
    1.3796    1.5302   -4.8390 C   0  0  0  0  0  0  0  0  0  0  0  0
    0.0256    1.8000   -4.8399 C   0  0  0  0  0  0  0  0  0  0  0  0
   -0.7524    1.7714   -3.7014 C   0  0  0  0  0  0  0  0  0  0  0  0
   -0.1668    1.4583   -2.4815 C   0  0  0  0  0  0  0  0  0  0  0  0
    3.4466    1.1465   -0.9176 S   0  0  0  0  0  0  0  0  0  0  0  0
    3.5419    1.9851    0.3584 O   0  0  0  0  0  0  0  0  0  0  0  0
    4.1825    1.8961   -1.9470 O   0  0  0  0  0  0  0  0  0  0  0  0
    4.3127   -0.3416   -0.5325 C   0  0  0  0  0  0  0  0  0  0  0  0
    4.4234   -0.8090    0.7600 C   0  0  0  0  0  0  0  0  0  0  0  0
    5.1290   -1.9911    0.9363 C   0  0  0  0  0  0  0  0  0  0  0  0
    5.6883   -2.6590   -0.1318 C   0  0  0  0  0  0  0  0  0  0  0  0
    6.4302   -3.9157    0.1161 C   0  0  0  0  0  0  0  0  0  0  0  0
    5.5735   -2.1846   -1.4256 C   0  0  0  0  0  0  0  0  0  0  0  0
    4.8726   -1.0063   -1.6189 C   0  0  0  0  0  0  0  0  0  0  0  0
   -3.4987    0.0748   -1.3618 S   0  0  0  0  0  0  0  0  0  0  0  0
   -3.9690   -0.6154   -2.5805 O   0  0  0  0  0  0  0  0  0  0  0  0
   -4.0256    1.5121   -1.4439 O   0  0  0  0  0  0  0  0  0  0  0  0
   -4.2027   -0.6051    0.0957 C   0  0  0  0  0  0  0  0  0  0  0  0
   -4.4633   -1.9367    0.2559 C   0  0  0  0  0  0  0  0  0  0  0  0
   -5.0171   -2.4557    1.4091 C   0  0  0  0  0  0  0  0  0  0  0  0
   -5.3195   -1.5834    2.4454 C   0  0  0  0  0  0  0  0  0  0  0  0
   -5.9168   -2.0912    3.7073 C   0  0  0  0  0  0  0  0  0  0  0  0
   -5.0734   -0.2308    2.3275 C   0  0  0  0  0  0  0  0  0  0  0  0
   -4.5228    0.2294    1.1614 C   0  0  0  0  0  0  0  0  0  0  0  0
   -0.4728    5.6768    4.2296 H   0  0  0  0  0  0  0  0  0  0  0  0
   -0.2209    4.2390    5.3637 H   0  0  0  0  0  0  0  0  0  0  0  0
   -1.8886    4.7299    4.7495 H   0  0  0  0  0  0  0  0  0  0  0  0
   -2.4493    4.4740    2.3734 H   0  0  0  0  0  0  0  0  0  0  0  0
   -2.1967    3.0888    0.4287 H   0  0  0  0  0  0  0  0  0  0  0  0
    1.4517    1.5533    2.0647 H   0  0  0  0  0  0  0  0  0  0  0  0
    1.1478    2.9590    3.9917 H   0  0  0  0  0  0  0  0  0  0  0  0
   -1.7962    2.1864   -1.2692 H   0  0  0  0  0  0  0  0  0  0  0  0
   -2.4663   -2.2422   -2.1130 H   0  0  0  0  0  0  0  0  0  0  0  0
   -1.1176   -4.2929   -2.1046 H   0  0  0  0  0  0  0  0  0  0  0  0
    1.1740   -4.2033   -1.2264 H   0  0  0  0  0  0  0  0  0  0  0  0
    2.0837   -2.1434   -0.3884 H   0  0  0  0  0  0  0  0  0  0  0  0
    1.3847    0.1125    0.7159 H   0  0  0  0  0  0  0  0  0  0  0  0
    3.0021    0.9900   -3.5678 H   0  0  0  0  0  0  0  0  0  0  0  0
    1.9637    1.5600   -5.7478 H   0  0  0  0  0  0  0  0  0  0  0  0
   -0.4500    2.0458   -5.7764 H   0  0  0  0  0  0  0  0  0  0  0  0
   -1.8123    1.9894   -3.7452 H   0  0  0  0  0  0  0  0  0  0  0  0
    3.9734   -0.2624    1.5776 H   0  0  0  0  0  0  0  0  0  0  0  0
    5.2506   -2.4079    1.9229 H   0  0  0  0  0  0  0  0  0  0  0  0
    5.8846   -4.6211    0.7782 H   0  0  0  0  0  0  0  0  0  0  0  0
    7.4177   -3.7380    0.5990 H   0  0  0  0  0  0  0  0  0  0  0  0
    6.6477   -4.4698   -0.8115 H   0  0  0  0  0  0  0  0  0  0  0  0
    6.0196   -2.7229   -2.2519 H   0  0  0  0  0  0  0  0  0  0  0  0
    4.7770   -0.6262   -2.6298 H   0  0  0  0  0  0  0  0  0  0  0  0
   -4.2334   -2.6267   -0.5420 H   0  0  0  0  0  0  0  0  0  0  0  0
   -5.2287   -3.5047    1.5506 H   0  0  0  0  0  0  0  0  0  0  0  0
   -5.0924   -2.4502    4.3570 H   0  0  0  0  0  0  0  0  0  0  0  0
   -6.5861   -2.9533    3.5012 H   0  0  0  0  0  0  0  0  0  0  0  0
   -6.4331   -1.2783    4.2561 H   0  0  0  0  0  0  0  0  0  0  0  0
   -5.2951    0.4810    3.1127 H   0  0  0  0  0  0  0  0  0  0  0  0
   -4.3207    1.2873    1.0461 H   0  0  0  0  0  0  0  0  0  0  0  0
  1  2  1  0
  2  3  2  0
  3  4  1  0
  4  5  2  0
  5  6  1  0
  6  7  2  0
  5  8  1  0
  8  9  1  0
  9 10  1  0
 10 11  1  0
 11 12  2  0
 12 13  1  0
 13 14  2  0
 14 15  1  0
 15 16  2  0
 16 17  1  0
 17 18  1  0
 18 19  1  0
 19 20  2  0
 20 21  1  0
 21 22  2  0
 22 23  1  0
 23 24  2  0
 18 25  1  0
 25 26  2  0
 25 27  2  0
 25 28  1  0
 28 29  2  0
 29 30  1  0
 30 31  2  0
 31 32  1  0
 31 33  1  0
 33 34  2  0
 10 35  1  0
 35 36  2  0
 35 37  2  0
 35 38  1  0
 38 39  2  0
 39 40  1  0
 40 41  2  0
 41 42  1  0
 41 43  1  0
 43 44  2  0
  7  2  1  0
 17  8  1  0
 24  9  1  0
 16 11  1  0
 24 19  1  0
 34 28  1  0
 44 38  1  0
  1 45  1  0
  1 46  1  0
  1 47  1  0
  3 48  1  0
  4 49  1  0
  6 50  1  0
  7 51  1  0
  9 52  1  0
 12 53  1  0
 13 54  1  0
 14 55  1  0
 15 56  1  0
 17 57  1  0
 20 58  1  0
 21 59  1  0
 22 60  1  0
 23 61  1  0
 29 62  1  0
 30 63  1  0
 32 64  1  0
 32 65  1  0
 32 66  1  0
 33 67  1  0
 34 68  1  0
 39 69  1  0
 40 70  1  0
 42 71  1  0
 42 72  1  0
 42 73  1  0
 43 74  1  0
 44 75  1  0
M  END
>  <Batch_No>  (54) 
3824-0081

>  <EC50_nM>  (54) 
24.8

>  <Set>  (54) 
Probe-like

>  <Molecular_Weight>  (54) 
621.76834

>  <ALogP>  (54) 
8.041

$$$$
MMV006429
     RDKit          3D

 52 55  0  0  0  0  0  0  0  0999 V2000
   -3.0731   -2.5032   -0.4280 C   0  0  0  0  0  0  0  0  0  0  0  0
   -2.6412   -2.3659    1.0070 C   0  0  0  0  0  0  0  0  0  0  0  0
   -3.5678   -3.2320    1.8574 C   0  0  0  0  0  0  0  0  0  0  0  0
   -2.8217   -0.9459    1.4492 C   0  0  0  0  0  0  0  0  0  0  0  0
   -2.0517   -0.0223    0.6678 N   0  0  0  0  0  0  0  0  0  0  0  0
   -0.6772    0.3718    1.0168 C   0  0  0  0  0  0  0  0  0  0  0  0
    0.1475    0.0045   -0.1927 C   0  0  0  0  0  0  0  0  0  0  0  0
    1.5934    0.0555    0.0100 C   0  0  0  0  0  0  0  0  0  0  0  0
    2.1459    0.6978    0.9662 O   0  0  0  0  0  0  0  0  0  0  0  0
    2.4705   -0.6242   -0.8652 N   0  0  0  0  0  0  0  0  0  0  0  0
    3.8726   -0.5133   -0.5870 C   0  0  0  0  0  0  0  0  0  0  0  0
    4.5874   -1.3717    0.2226 C   0  0  0  0  0  0  0  0  0  0  0  0
    5.8952   -0.9000    0.2134 C   0  0  0  0  0  0  0  0  0  0  0  0
    6.9881   -1.5723    0.9841 C   0  0  0  0  0  0  0  0  0  0  0  0
    5.9393    0.1549   -0.5452 O   0  0  0  0  0  0  0  0  0  0  0  0
    4.7448    0.4073   -1.0355 N   0  0  0  0  0  0  0  0  0  0  0  0
   -0.3163    0.6880   -1.4212 C   0  0  0  0  0  0  0  0  0  0  0  0
    0.4999    1.0906   -2.4484 C   0  0  0  0  0  0  0  0  0  0  0  0
    0.0070    1.7038   -3.5857 C   0  0  0  0  0  0  0  0  0  0  0  0
   -1.3569    1.9315   -3.7166 C   0  0  0  0  0  0  0  0  0  0  0  0
   -2.1972    1.5389   -2.7017 C   0  0  0  0  0  0  0  0  0  0  0  0
   -1.6760    0.9303   -1.5798 C   0  0  0  0  0  0  0  0  0  0  0  0
   -2.6066    0.5725   -0.5160 C   0  0  0  0  0  0  0  0  0  0  0  0
   -3.8569    0.7639   -0.6010 O   0  0  0  0  0  0  0  0  0  0  0  0
   -0.6916    1.8369    1.2143 C   0  0  0  0  0  0  0  0  0  0  0  0
   -1.5789    2.5923    1.8939 C   0  0  0  0  0  0  0  0  0  0  0  0
   -1.4042    3.9239    1.9481 C   0  0  0  0  0  0  0  0  0  0  0  0
   -0.3356    4.4308    1.3095 C   0  0  0  0  0  0  0  0  0  0  0  0
    0.5234    2.9972    0.5623 S   0  0  0  0  0  0  0  0  0  0  0  0
   -4.1861   -2.3179   -0.4450 H   0  0  0  0  0  0  0  0  0  0  0  0
   -2.9226   -3.5370   -0.8101 H   0  0  0  0  0  0  0  0  0  0  0  0
   -2.5594   -1.8191   -1.1112 H   0  0  0  0  0  0  0  0  0  0  0  0
   -1.5890   -2.6751    1.1145 H   0  0  0  0  0  0  0  0  0  0  0  0
   -3.6844   -2.7493    2.8653 H   0  0  0  0  0  0  0  0  0  0  0  0
   -3.1572   -4.2550    1.9207 H   0  0  0  0  0  0  0  0  0  0  0  0
   -4.5656   -3.1825    1.3778 H   0  0  0  0  0  0  0  0  0  0  0  0
   -2.4899   -0.8952    2.5138 H   0  0  0  0  0  0  0  0  0  0  0  0
   -3.9100   -0.7095    1.3868 H   0  0  0  0  0  0  0  0  0  0  0  0
   -0.3063   -0.1749    1.8812 H   0  0  0  0  0  0  0  0  0  0  0  0
   -0.0883   -1.1071   -0.3501 H   0  0  0  0  0  0  0  0  0  0  0  0
    2.1813   -1.1978   -1.6800 H   0  0  0  0  0  0  0  0  0  0  0  0
    4.2219   -2.2287    0.7544 H   0  0  0  0  0  0  0  0  0  0  0  0
    7.7957   -0.8308    1.2194 H   0  0  0  0  0  0  0  0  0  0  0  0
    6.5893   -1.8748    1.9937 H   0  0  0  0  0  0  0  0  0  0  0  0
    7.4169   -2.4110    0.4322 H   0  0  0  0  0  0  0  0  0  0  0  0
    1.5615    0.9477   -2.4000 H   0  0  0  0  0  0  0  0  0  0  0  0
    0.6504    2.0246   -4.4029 H   0  0  0  0  0  0  0  0  0  0  0  0
   -1.7676    2.4163   -4.6119 H   0  0  0  0  0  0  0  0  0  0  0  0
   -3.2644    1.7290   -2.8284 H   0  0  0  0  0  0  0  0  0  0  0  0
   -2.4506    2.1038    2.4054 H   0  0  0  0  0  0  0  0  0  0  0  0
   -2.1110    4.5911    2.4978 H   0  0  0  0  0  0  0  0  0  0  0  0
    0.0734    5.5114    1.1776 H   0  0  0  0  0  0  0  0  0  0  0  0
  1  2  1  0
  2  3  1  0
  2  4  1  0
  4  5  1  0
  5  6  1  0
  6  7  1  0
  7  8  1  0
  8  9  2  0
  8 10  1  0
 10 11  1  0
 11 12  1  0
 12 13  2  0
 13 14  1  0
 13 15  1  0
 15 16  1  0
  7 17  1  0
 17 18  2  0
 18 19  1  0
 19 20  2  0
 20 21  1  0
 21 22  2  0
 22 23  1  0
 23 24  2  0
  6 25  1  0
 25 26  2  0
 26 27  1  0
 27 28  2  0
 28 29  1  0
 23  5  1  0
 16 11  2  0
 22 17  1  0
 29 25  1  0
  1 30  1  0
  1 31  1  0
  1 32  1  0
  2 33  1  0
  3 34  1  0
  3 35  1  0
  3 36  1  0
  4 37  1  0
  4 38  1  0
  6 39  1  0
  7 40  1  0
 10 41  1  0
 12 42  1  0
 14 43  1  0
 14 44  1  0
 14 45  1  0
 18 46  1  0
 19 47  1  0
 20 48  1  0
 21 49  1  0
 26 50  1  0
 27 51  1  0
 28 52  1  0
M  END
>  <Batch_No>  (55) 
E456-0698

>  <EC50_nM>  (55) 
32.8

>  <Set>  (55) 
Drug-like

>  <Molecular_Weight>  (55) 
409.50132

>  <ALogP>  (55) 
3.582

$$$$
MMV396703
     RDKit          3D

 42 44  0  0  0  0  0  0  0  0999 V2000
    2.3259    0.3792   -0.3525 C   0  0  0  0  0  0  0  0  0  0  0  0
    3.2125   -0.4071   -1.0560 C   0  0  0  0  0  0  0  0  0  0  0  0
    2.7177   -1.1969   -2.0567 N   0  0  0  0  0  0  0  0  0  0  0  0
    1.3856   -1.1712   -2.3102 C   0  0  0  0  0  0  0  0  0  0  0  0
    0.5403   -0.3970   -1.6117 N   0  0  0  0  0  0  0  0  0  0  0  0
    0.9565    0.3899   -0.6300 C   0  0  0  0  0  0  0  0  0  0  0  0
    0.0728    1.2051    0.1244 N   0  0  0  0  0  0  0  0  0  0  0  0
   -1.3465    1.2890   -0.0883 C   0  0  0  0  0  0  0  0  0  0  0  0
   -2.0727   -0.0366    0.0094 C   0  0  0  0  0  0  0  0  0  0  0  0
   -3.4749    0.0841   -0.1841 N   0  0  0  0  0  0  0  0  0  0  0  0
   -4.2230    0.7394    0.8147 C   0  0  0  0  0  0  0  0  0  0  0  0
   -5.6950    0.7955    0.4733 C   0  0  0  0  0  0  0  0  0  0  0  0
   -4.0779   -1.1000   -0.6499 C   0  0  0  0  0  0  0  0  0  0  0  0
   -4.1394   -2.2608    0.2801 C   0  0  0  0  0  0  0  0  0  0  0  0
    4.4752   -0.1856   -0.5447 C   0  0  0  0  0  0  0  0  0  0  0  0
    4.3491    0.7459    0.4782 C   0  0  0  0  0  0  0  0  0  0  0  0
    5.4503    1.1901    1.2036 C   0  0  0  0  0  0  0  0  0  0  0  0
    6.7069    0.6672    0.8722 C   0  0  0  0  0  0  0  0  0  0  0  0
    6.8429   -0.2583   -0.1419 C   0  0  0  0  0  0  0  0  0  0  0  0
    8.4114   -0.8816   -0.5289 Cl  0  0  0  0  0  0  0  0  0  0  0  0
    5.7231   -0.6947   -0.8620 C   0  0  0  0  0  0  0  0  0  0  0  0
    3.0290    1.0722    0.5739 N   0  0  0  0  0  0  0  0  0  0  0  0
    1.0209   -1.8011   -3.1016 H   0  0  0  0  0  0  0  0  0  0  0  0
    0.5227    1.7847    0.8983 H   0  0  0  0  0  0  0  0  0  0  0  0
   -1.7695    1.9384    0.7144 H   0  0  0  0  0  0  0  0  0  0  0  0
   -1.5258    1.7819   -1.0688 H   0  0  0  0  0  0  0  0  0  0  0  0
   -1.7644   -0.5522    0.9471 H   0  0  0  0  0  0  0  0  0  0  0  0
   -1.6809   -0.6760   -0.8242 H   0  0  0  0  0  0  0  0  0  0  0  0
   -4.1067    0.2769    1.8221 H   0  0  0  0  0  0  0  0  0  0  0  0
   -3.9247    1.8106    0.9774 H   0  0  0  0  0  0  0  0  0  0  0  0
   -5.8162    1.3771   -0.4616 H   0  0  0  0  0  0  0  0  0  0  0  0
   -6.1968    1.3090    1.3484 H   0  0  0  0  0  0  0  0  0  0  0  0
   -6.1841   -0.2010    0.4469 H   0  0  0  0  0  0  0  0  0  0  0  0
   -3.4854   -1.4587   -1.5496 H   0  0  0  0  0  0  0  0  0  0  0  0
   -5.0994   -0.9198   -1.1061 H   0  0  0  0  0  0  0  0  0  0  0  0
   -5.2123   -2.5864    0.4073 H   0  0  0  0  0  0  0  0  0  0  0  0
   -3.7494   -2.1156    1.2807 H   0  0  0  0  0  0  0  0  0  0  0  0
   -3.6484   -3.1924   -0.1351 H   0  0  0  0  0  0  0  0  0  0  0  0
    5.3736    1.9152    2.0009 H   0  0  0  0  0  0  0  0  0  0  0  0
    7.5824    1.0023    1.4277 H   0  0  0  0  0  0  0  0  0  0  0  0
    5.8164   -1.4269   -1.6679 H   0  0  0  0  0  0  0  0  0  0  0  0
    2.6783    1.7661    1.2815 H   0  0  0  0  0  0  0  0  0  0  0  0
  1  2  1  0
  2  3  2  0
  3  4  1  0
  4  5  2  0
  5  6  1  0
  6  7  1  0
  7  8  1  0
  8  9  1  0
  9 10  1  0
 10 11  1  0
 11 12  1  0
 10 13  1  0
 13 14  1  0
  2 15  1  0
 15 16  2  0
 16 17  1  0
 17 18  2  0
 18 19  1  0
 19 20  1  0
 19 21  2  0
 16 22  1  0
  6  1  2  0
 22  1  1  0
 21 15  1  0
  4 23  1  0
  7 24  1  0
  8 25  1  0
  8 26  1  0
  9 27  1  0
  9 28  1  0
 11 29  1  0
 11 30  1  0
 12 31  1  0
 12 32  1  0
 12 33  1  0
 13 34  1  0
 13 35  1  0
 14 36  1  0
 14 37  1  0
 14 38  1  0
 17 39  1  0
 18 40  1  0
 21 41  1  0
 22 42  1  0
M  END
>  <Batch_No>  (56) 
STK545265

>  <EC50_nM>  (56) 
406

>  <Set>  (56) 
Drug-like

>  <Molecular_Weight>  (56) 
317.8165

>  <ALogP>  (56) 
3.349

$$$$
MMV006937
     RDKit          3D

 38 41  0  0  0  0  0  0  0  0999 V2000
    7.0835    0.3719    0.6071 C   0  0  0  0  0  0  0  0  0  0  0  0
    5.5975    0.2270    0.5233 C   0  0  0  0  0  0  0  0  0  0  0  0
    4.9363   -0.8907    0.9971 C   0  0  0  0  0  0  0  0  0  0  0  0
    3.5620   -0.9337    0.8755 C   0  0  0  0  0  0  0  0  0  0  0  0
    2.8580    0.1208    0.2909 C   0  0  0  0  0  0  0  0  0  0  0  0
    3.5163    1.2355   -0.1817 C   0  0  0  0  0  0  0  0  0  0  0  0
    4.8842    1.2590   -0.0514 C   0  0  0  0  0  0  0  0  0  0  0  0
    1.3904    0.0459    0.1750 C   0  0  0  0  0  0  0  0  0  0  0  0
    0.6159   -1.0125    0.6083 C   0  0  0  0  0  0  0  0  0  0  0  0
   -0.6950   -0.6949    0.3183 C   0  0  0  0  0  0  0  0  0  0  0  0
   -1.8447   -1.3855    0.5342 N   0  0  0  0  0  0  0  0  0  0  0  0
   -3.0374   -0.9015    0.1757 C   0  0  0  0  0  0  0  0  0  0  0  0
   -4.2335   -1.7323    0.4548 C   0  0  0  0  0  0  0  0  0  0  0  0
   -5.4953   -0.9782    0.1569 C   0  0  0  0  0  0  0  0  0  0  0  0
   -5.3876   -0.1442   -1.0971 C   0  0  0  0  0  0  0  0  0  0  0  0
   -4.3532    0.9489   -0.8585 C   0  0  0  0  0  0  0  0  0  0  0  0
   -3.0832    0.3309   -0.4270 C   0  0  0  0  0  0  0  0  0  0  0  0
   -1.9030    1.0442   -0.6507 C   0  0  0  0  0  0  0  0  0  0  0  0
   -1.9087    2.2867   -1.2541 O   0  0  0  0  0  0  0  0  0  0  0  0
   -0.7052    0.5226   -0.2735 N   0  0  0  0  0  0  0  0  0  0  0  0
    0.5556    0.9684   -0.3591 N   0  0  0  0  0  0  0  0  0  0  0  0
    7.5552   -0.5084    1.0631 H   0  0  0  0  0  0  0  0  0  0  0  0
    7.4553    0.6318   -0.3962 H   0  0  0  0  0  0  0  0  0  0  0  0
    7.3335    1.2305    1.2740 H   0  0  0  0  0  0  0  0  0  0  0  0
    5.4927   -1.7019    1.4483 H   0  0  0  0  0  0  0  0  0  0  0  0
    3.0161   -1.7969    1.2377 H   0  0  0  0  0  0  0  0  0  0  0  0
    2.9504    2.0367   -0.6292 H   0  0  0  0  0  0  0  0  0  0  0  0
    5.4253    2.1320   -0.4189 H   0  0  0  0  0  0  0  0  0  0  0  0
    0.9839   -1.9073    1.0806 H   0  0  0  0  0  0  0  0  0  0  0  0
   -4.2361   -2.6751   -0.1330 H   0  0  0  0  0  0  0  0  0  0  0  0
   -4.2043   -1.9877    1.5335 H   0  0  0  0  0  0  0  0  0  0  0  0
   -5.7905   -0.2776    0.9636 H   0  0  0  0  0  0  0  0  0  0  0  0
   -6.3046   -1.7321    0.0527 H   0  0  0  0  0  0  0  0  0  0  0  0
   -6.3871    0.2847   -1.2769 H   0  0  0  0  0  0  0  0  0  0  0  0
   -5.0217   -0.7243   -1.9769 H   0  0  0  0  0  0  0  0  0  0  0  0
   -4.7219    1.6609   -0.0895 H   0  0  0  0  0  0  0  0  0  0  0  0
   -4.2680    1.5017   -1.8214 H   0  0  0  0  0  0  0  0  0  0  0  0
   -1.6312    3.1447   -0.8160 H   0  0  0  0  0  0  0  0  0  0  0  0
  1  2  1  0
  2  3  2  0
  3  4  1  0
  4  5  2  0
  5  6  1  0
  6  7  2  0
  5  8  1  0
  8  9  1  0
  9 10  2  0
 10 11  1  0
 11 12  2  0
 12 13  1  0
 13 14  1  0
 14 15  1  0
 15 16  1  0
 16 17  1  0
 17 18  2  0
 18 19  1  0
 18 20  1  0
 20 21  1  0
  7  2  1  0
 21  8  2  0
 20 10  1  0
 17 12  1  0
  1 22  1  0
  1 23  1  0
  1 24  1  0
  3 25  1  0
  4 26  1  0
  6 27  1  0
  7 28  1  0
  9 29  1  0
 13 30  1  0
 13 31  1  0
 14 32  1  0
 14 33  1  0
 15 34  1  0
 15 35  1  0
 16 36  1  0
 16 37  1  0
 19 38  1  0
M  END
>  <Batch_No>  (57) 
STK851529

>  <EC50_nM>  (57) 
396

>  <Set>  (57) 
Drug-like

>  <Molecular_Weight>  (57) 
279.33638

>  <ALogP>  (57) 
4.353

$$$$
MMV085203
     RDKit          3D

 49 52  0  0  0  0  0  0  0  0999 V2000
    3.9255   -0.7319   -2.7215 C   0  0  0  0  0  0  0  0  0  0  0  0
    3.0062   -0.6679   -1.6522 O   0  0  0  0  0  0  0  0  0  0  0  0
    3.3945   -0.4920   -0.3238 C   0  0  0  0  0  0  0  0  0  0  0  0
    4.7257   -0.3660    0.0442 C   0  0  0  0  0  0  0  0  0  0  0  0
    5.0719   -0.1934    1.3665 C   0  0  0  0  0  0  0  0  0  0  0  0
    4.1171   -0.1406    2.3579 C   0  0  0  0  0  0  0  0  0  0  0  0
    2.7902   -0.2655    1.9969 C   0  0  0  0  0  0  0  0  0  0  0  0
    2.4056   -0.4417    0.6643 C   0  0  0  0  0  0  0  0  0  0  0  0
    1.0272   -0.5640    0.3552 N   0  0  0  0  0  0  0  0  0  0  0  0
    0.1936    0.4129    0.3258 C   0  0  0  0  0  0  0  0  0  0  0  0
    0.5578    1.7979    0.6103 C   0  0  0  0  0  0  0  0  0  0  0  0
    1.7545    2.0520    0.9009 O   0  0  0  0  0  0  0  0  0  0  0  0
   -0.4594    2.8423    0.5524 C   0  0  0  0  0  0  0  0  0  0  0  0
   -0.1196    4.1544    0.8208 C   0  0  0  0  0  0  0  0  0  0  0  0
   -1.1368    5.1015    0.7483 C   0  0  0  0  0  0  0  0  0  0  0  0
   -2.4231    4.7805    0.4289 C   0  0  0  0  0  0  0  0  0  0  0  0
   -2.7070    3.4479    0.1692 C   0  0  0  0  0  0  0  0  0  0  0  0
   -1.7434    2.4604    0.2243 C   0  0  0  0  0  0  0  0  0  0  0  0
   -2.0884    1.0618   -0.0582 C   0  0  0  0  0  0  0  0  0  0  0  0
   -1.1916    0.0864   -0.0153 C   0  0  0  0  0  0  0  0  0  0  0  0
   -1.5638   -1.2765   -0.2981 N   0  0  0  0  0  0  0  0  0  0  0  0
   -1.2989   -2.3025    0.6955 C   0  0  0  0  0  0  0  0  0  0  0  0
   -2.5129   -3.1658    0.9495 C   0  0  0  0  0  0  0  0  0  0  0  0
   -3.3393   -3.3442   -0.3061 C   0  0  0  0  0  0  0  0  0  0  0  0
   -2.4944   -3.0841   -1.5507 C   0  0  0  0  0  0  0  0  0  0  0  0
   -2.1936   -1.6002   -1.5633 C   0  0  0  0  0  0  0  0  0  0  0  0
   -3.4095    0.8036   -0.3755 O   0  0  0  0  0  0  0  0  0  0  0  0
    4.2092   -1.7925   -2.8939 H   0  0  0  0  0  0  0  0  0  0  0  0
    3.3849   -0.3705   -3.6228 H   0  0  0  0  0  0  0  0  0  0  0  0
    4.7978   -0.0558   -2.5976 H   0  0  0  0  0  0  0  0  0  0  0  0
    5.4922   -0.4033   -0.7067 H   0  0  0  0  0  0  0  0  0  0  0  0
    6.1114   -0.0959    1.6464 H   0  0  0  0  0  0  0  0  0  0  0  0
    4.4009   -0.0034    3.4045 H   0  0  0  0  0  0  0  0  0  0  0  0
    2.0664   -0.2196    2.8001 H   0  0  0  0  0  0  0  0  0  0  0  0
    0.9068    4.4465    1.0811 H   0  0  0  0  0  0  0  0  0  0  0  0
   -0.8666    6.1341    0.9601 H   0  0  0  0  0  0  0  0  0  0  0  0
   -3.2217    5.5244    0.3720 H   0  0  0  0  0  0  0  0  0  0  0  0
   -3.7488    3.2004   -0.0877 H   0  0  0  0  0  0  0  0  0  0  0  0
   -1.0544   -1.8296    1.6683 H   0  0  0  0  0  0  0  0  0  0  0  0
   -0.4039   -2.8741    0.3787 H   0  0  0  0  0  0  0  0  0  0  0  0
   -3.1285   -2.7299    1.7699 H   0  0  0  0  0  0  0  0  0  0  0  0
   -2.1404   -4.1423    1.3319 H   0  0  0  0  0  0  0  0  0  0  0  0
   -3.7649   -4.3610   -0.2787 H   0  0  0  0  0  0  0  0  0  0  0  0
   -4.1089   -2.5383   -0.2973 H   0  0  0  0  0  0  0  0  0  0  0  0
   -3.1485   -3.3620   -2.4120 H   0  0  0  0  0  0  0  0  0  0  0  0
   -1.5400   -3.6204   -1.5351 H   0  0  0  0  0  0  0  0  0  0  0  0
   -1.5080   -1.3371   -2.4124 H   0  0  0  0  0  0  0  0  0  0  0  0
   -3.1699   -1.0965   -1.7158 H   0  0  0  0  0  0  0  0  0  0  0  0
   -3.8529    1.1616   -1.1993 H   0  0  0  0  0  0  0  0  0  0  0  0
  1  2  1  0
  2  3  1  0
  3  4  2  0
  4  5  1  0
  5  6  2  0
  6  7  1  0
  7  8  2  0
  8  9  1  0
  9 10  2  3
 10 11  1  0
 11 12  2  0
 11 13  1  0
 13 14  2  0
 14 15  1  0
 15 16  2  0
 16 17  1  0
 17 18  2  0
 18 19  1  0
 19 20  2  0
 20 21  1  0
 21 22  1  0
 22 23  1  0
 23 24  1  0
 24 25  1  0
 25 26  1  0
 19 27  1  0
  8  3  1  0
 20 10  1  0
 18 13  1  0
 26 21  1  0
  1 28  1  0
  1 29  1  0
  1 30  1  0
  4 31  1  0
  5 32  1  0
  6 33  1  0
  7 34  1  0
 14 35  1  0
 15 36  1  0
 16 37  1  0
 17 38  1  0
 22 39  1  0
 22 40  1  0
 23 41  1  0
 23 42  1  0
 24 43  1  0
 24 44  1  0
 25 45  1  0
 25 46  1  0
 26 47  1  0
 26 48  1  0
 27 49  1  0
M  END
>  <Batch_No>  (58) 
STK565927

>  <EC50_nM>  (58) 
5.3

>  <Set>  (58) 
Probe-like

>  <Molecular_Weight>  (58) 
362.42167

>  <ALogP>  (58) 
3.719

$$$$
MMV665820
     RDKit          3D

 24 25  0  0  0  0  0  0  0  0999 V2000
    3.7024    1.7266   -0.2672 C   0  0  0  0  0  0  0  0  0  0  0  0
    3.4453    0.3429   -0.2391 O   0  0  0  0  0  0  0  0  0  0  0  0
    2.1724   -0.2043   -0.1764 C   0  0  0  0  0  0  0  0  0  0  0  0
    2.0407   -1.5849   -0.1538 C   0  0  0  0  0  0  0  0  0  0  0  0
    0.7908   -2.1929   -0.0913 C   0  0  0  0  0  0  0  0  0  0  0  0
   -0.3047   -1.3443   -0.0534 C   0  0  0  0  0  0  0  0  0  0  0  0
   -1.5835   -1.9091    0.0098 C   0  0  0  0  0  0  0  0  0  0  0  0
   -1.7097   -3.1520    0.0304 O   0  0  0  0  0  0  0  0  0  0  0  0
   -2.6290   -1.0171    0.0450 C   0  0  0  0  0  0  0  0  0  0  0  0
   -2.4744    0.3435    0.0216 C   0  0  0  0  0  0  0  0  0  0  0  0
   -1.2384    0.8061   -0.0384 O   0  0  0  0  0  0  0  0  0  0  0  0
   -0.1956    0.0263   -0.0749 C   0  0  0  0  0  0  0  0  0  0  0  0
    1.0562    0.6095   -0.1371 C   0  0  0  0  0  0  0  0  0  0  0  0
   -3.6040    1.3087    0.0596 C   0  0  0  0  0  0  0  0  0  0  0  0
   -4.9814    0.6592   -0.8329 Cl  0  0  0  0  0  0  0  0  0  0  0  0
   -4.0159    1.6425    1.7647 Cl  0  0  0  0  0  0  0  0  0  0  0  0
   -3.0327    2.8563   -0.6453 Cl  0  0  0  0  0  0  0  0  0  0  0  0
    2.9419    2.2454   -0.8903 H   0  0  0  0  0  0  0  0  0  0  0  0
    3.7063    2.1226    0.7783 H   0  0  0  0  0  0  0  0  0  0  0  0
    4.7432    1.8833   -0.6622 H   0  0  0  0  0  0  0  0  0  0  0  0
    2.9484   -2.1794   -0.1865 H   0  0  0  0  0  0  0  0  0  0  0  0
    0.7197   -3.2637   -0.0752 H   0  0  0  0  0  0  0  0  0  0  0  0
   -3.6200   -1.4165    0.0935 H   0  0  0  0  0  0  0  0  0  0  0  0
    1.1222    1.6913   -0.1532 H   0  0  0  0  0  0  0  0  0  0  0  0
  1  2  1  0
  2  3  1  0
  3  4  2  0
  4  5  1  0
  5  6  2  0
  6  7  1  0
  7  8  2  0
  7  9  1  0
  9 10  2  0
 10 11  1  0
 11 12  1  0
 12 13  2  0
 10 14  1  0
 14 15  1  0
 14 16  1  0
 14 17  1  0
 13  3  1  0
 12  6  1  0
  1 18  1  0
  1 19  1  0
  1 20  1  0
  4 21  1  0
  5 22  1  0
  9 23  1  0
 13 24  1  0
M  END
>  <Batch_No>  (59) 
OSSK_324941

>  <EC50_nM>  (59) 
520

>  <Set>  (59) 
Drug-like

>  <Molecular_Weight>  (59) 
293.53048

>  <ALogP>  (59) 
3.134

$$$$
MMV665841
     RDKit          3D

 39 41  0  0  0  0  0  0  0  0999 V2000
    4.6931    0.6773    0.5893 C   0  0  0  0  0  0  0  0  0  0  0  0
    4.6635   -0.8150    0.6740 C   0  0  0  0  0  0  0  0  0  0  0  0
    3.8590   -1.4348   -0.4482 C   0  0  0  0  0  0  0  0  0  0  0  0
    2.4531   -1.0038   -0.4680 C   0  0  0  0  0  0  0  0  0  0  0  0
    1.9830    0.0907   -1.1545 C   0  0  0  0  0  0  0  0  0  0  0  0
    0.6406    0.4401   -1.1291 C   0  0  0  0  0  0  0  0  0  0  0  0
    0.2497    1.5420   -1.8357 O   0  0  0  0  0  0  0  0  0  0  0  0
   -0.2638   -0.3036   -0.4118 C   0  0  0  0  0  0  0  0  0  0  0  0
   -1.6276    0.0173   -0.3609 C   0  0  0  0  0  0  0  0  0  0  0  0
   -2.3971   -0.8284    0.4045 C   0  0  0  0  0  0  0  0  0  0  0  0
   -3.8760   -0.5926    0.5595 C   0  0  0  0  0  0  0  0  0  0  0  0
   -4.1127    0.8231    0.3208 N   0  0  0  0  0  0  0  0  0  0  0  0
   -3.6885    1.6302    1.4207 C   0  0  0  0  0  0  0  0  0  0  0  0
   -3.6307    1.2368   -0.9561 C   0  0  0  0  0  0  0  0  0  0  0  0
   -2.1303    1.1854   -1.1079 C   0  0  0  0  0  0  0  0  0  0  0  0
   -1.8931   -1.9188    1.0815 C   0  0  0  0  0  0  0  0  0  0  0  0
   -2.6032   -2.6769    1.7713 O   0  0  0  0  0  0  0  0  0  0  0  0
   -0.6101   -2.1591    0.9887 O   0  0  0  0  0  0  0  0  0  0  0  0
    0.2066   -1.4032    0.2789 C   0  0  0  0  0  0  0  0  0  0  0  0
    1.5443   -1.7593    0.2592 C   0  0  0  0  0  0  0  0  0  0  0  0
    3.8582    1.1783    1.1287 H   0  0  0  0  0  0  0  0  0  0  0  0
    5.6298    1.0709    1.0670 H   0  0  0  0  0  0  0  0  0  0  0  0
    4.6927    0.9979   -0.4715 H   0  0  0  0  0  0  0  0  0  0  0  0
    5.7113   -1.1769    0.5305 H   0  0  0  0  0  0  0  0  0  0  0  0
    4.3453   -1.1913    1.6662 H   0  0  0  0  0  0  0  0  0  0  0  0
    4.3131   -1.0319   -1.3983 H   0  0  0  0  0  0  0  0  0  0  0  0
    4.0181   -2.5213   -0.5031 H   0  0  0  0  0  0  0  0  0  0  0  0
    2.6684    0.6871   -1.7219 H   0  0  0  0  0  0  0  0  0  0  0  0
    0.6131    2.4564   -1.5605 H   0  0  0  0  0  0  0  0  0  0  0  0
   -4.4516   -1.2386   -0.1039 H   0  0  0  0  0  0  0  0  0  0  0  0
   -4.1082   -0.7743    1.6285 H   0  0  0  0  0  0  0  0  0  0  0  0
   -2.6030    1.6755    1.5866 H   0  0  0  0  0  0  0  0  0  0  0  0
   -4.1391    2.6298    1.3876 H   0  0  0  0  0  0  0  0  0  0  0  0
   -4.0970    1.1397    2.3480 H   0  0  0  0  0  0  0  0  0  0  0  0
   -4.0520    0.5118   -1.7022 H   0  0  0  0  0  0  0  0  0  0  0  0
   -4.0431    2.2383   -1.2004 H   0  0  0  0  0  0  0  0  0  0  0  0
   -1.7526    2.1484   -0.7065 H   0  0  0  0  0  0  0  0  0  0  0  0
   -1.9539    1.0895   -2.2050 H   0  0  0  0  0  0  0  0  0  0  0  0
    1.8908   -2.6366    0.8158 H   0  0  0  0  0  0  0  0  0  0  0  0
  1  2  1  0
  2  3  1  0
  3  4  1  0
  4  5  2  0
  5  6  1  0
  6  7  1  0
  6  8  2  0
  8  9  1  0
  9 10  2  0
 10 11  1  0
 11 12  1  0
 12 13  1  0
 12 14  1  0
 14 15  1  0
 10 16  1  0
 16 17  2  0
 16 18  1  0
 18 19  1  0
 19 20  2  0
 20  4  1  0
 19  8  1  0
 15  9  1  0
  1 21  1  0
  1 22  1  0
  1 23  1  0
  2 24  1  0
  2 25  1  0
  3 26  1  0
  3 27  1  0
  5 28  1  0
  7 29  1  0
 11 30  1  0
 11 31  1  0
 13 32  1  0
 13 33  1  0
 13 34  1  0
 14 35  1  0
 14 36  1  0
 15 37  1  0
 15 38  1  0
 20 39  1  0
M  END
>  <Batch_No>  (60) 
OSSL_050662

>  <EC50_nM>  (60) 
146

>  <Set>  (60) 
Probe-like

>  <Molecular_Weight>  (60) 
273.32696

>  <ALogP>  (60) 
3.125

$$$$
MMV007116
     RDKit          3D

 33 34  0  0  0  0  0  0  0  0999 V2000
    1.4891   -0.4887   -0.2807 C   0  0  0  0  0  0  0  0  0  0  0  0
    1.3407   -1.3373   -1.3582 C   0  0  0  0  0  0  0  0  0  0  0  0
    0.0708   -1.6876   -1.7141 N   0  0  0  0  0  0  0  0  0  0  0  0
   -0.9781   -1.2047   -1.0175 C   0  0  0  0  0  0  0  0  0  0  0  0
   -0.8494   -0.3582    0.0587 C   0  0  0  0  0  0  0  0  0  0  0  0
    0.4249    0.0090    0.4359 C   0  0  0  0  0  0  0  0  0  0  0  0
    0.5967    0.8569    1.5108 O   0  0  0  0  0  0  0  0  0  0  0  0
   -2.2385   -1.5857   -1.4134 C   0  0  0  0  0  0  0  0  0  0  0  0
   -3.3875   -1.1567   -0.7787 C   0  0  0  0  0  0  0  0  0  0  0  0
   -3.2389   -0.3080    0.2989 C   0  0  0  0  0  0  0  0  0  0  0  0
   -4.4269    0.1810    1.0135 C   0  0  0  0  0  0  0  0  0  0  0  0
   -4.9927    1.4602    0.4816 C   0  0  0  0  0  0  0  0  0  0  0  0
   -1.9785    0.1092    0.7413 C   0  0  0  0  0  0  0  0  0  0  0  0
    2.8395   -0.1049    0.1123 C   0  0  0  0  0  0  0  0  0  0  0  0
    3.9707   -0.5435   -0.5333 O   0  0  0  0  0  0  0  0  0  0  0  0
    5.2944   -0.2132   -0.2069 C   0  0  0  0  0  0  0  0  0  0  0  0
    5.6093    1.2501   -0.2718 C   0  0  0  0  0  0  0  0  0  0  0  0
    2.9493    0.6818    1.1134 O   0  0  0  0  0  0  0  0  0  0  0  0
    2.1974   -1.7216   -1.9141 H   0  0  0  0  0  0  0  0  0  0  0  0
    0.1432    0.5712    2.3907 H   0  0  0  0  0  0  0  0  0  0  0  0
   -2.3481   -2.2513   -2.2591 H   0  0  0  0  0  0  0  0  0  0  0  0
   -4.3451   -1.4984   -1.1465 H   0  0  0  0  0  0  0  0  0  0  0  0
   -4.2013    0.2168    2.0960 H   0  0  0  0  0  0  0  0  0  0  0  0
   -5.2224   -0.6073    0.9055 H   0  0  0  0  0  0  0  0  0  0  0  0
   -5.5943    1.9176    1.3121 H   0  0  0  0  0  0  0  0  0  0  0  0
   -4.2398    2.1514    0.0778 H   0  0  0  0  0  0  0  0  0  0  0  0
   -5.7306    1.2849   -0.3426 H   0  0  0  0  0  0  0  0  0  0  0  0
   -1.8754    0.7724    1.5843 H   0  0  0  0  0  0  0  0  0  0  0  0
    5.9383   -0.7352   -0.9451 H   0  0  0  0  0  0  0  0  0  0  0  0
    5.6042   -0.6030    0.7850 H   0  0  0  0  0  0  0  0  0  0  0  0
    4.7864    1.8641   -0.6929 H   0  0  0  0  0  0  0  0  0  0  0  0
    5.8359    1.6488    0.7605 H   0  0  0  0  0  0  0  0  0  0  0  0
    6.5567    1.4298   -0.8327 H   0  0  0  0  0  0  0  0  0  0  0  0
  1  2  2  0
  2  3  1  0
  3  4  2  0
  4  5  1  0
  5  6  2  0
  6  7  1  0
  4  8  1  0
  8  9  2  0
  9 10  1  0
 10 11  1  0
 11 12  1  0
 10 13  2  0
  1 14  1  0
 14 15  1  0
 15 16  1  0
 16 17  1  0
 14 18  2  0
  6  1  1  0
 13  5  1  0
  2 19  1  0
  7 20  1  0
  8 21  1  0
  9 22  1  0
 11 23  1  0
 11 24  1  0
 12 25  1  0
 12 26  1  0
 12 27  1  0
 13 28  1  0
 16 29  1  0
 16 30  1  0
 17 31  1  0
 17 32  1  0
 17 33  1  0
M  END
>  <Batch_No>  (61) 
5185336

>  <EC50_nM>  (61) 
351

>  <Set>  (61) 
Drug-like

>  <Molecular_Weight>  (61) 
245.2738

>  <ALogP>  (61) 
2.92

$$$$
MMV007384
     RDKit          3D

 59 64  0  0  0  0  0  0  0  0999 V2000
   10.6674    2.2585   -0.3923 C   0  0  0  0  0  0  0  0  0  0  0  0
    9.9102    1.2436   -0.9583 O   0  0  0  0  0  0  0  0  0  0  0  0
    8.6761    0.8828   -0.4666 C   0  0  0  0  0  0  0  0  0  0  0  0
    8.0295   -0.1602   -1.1450 C   0  0  0  0  0  0  0  0  0  0  0  0
    6.7869   -0.6126   -0.7487 C   0  0  0  0  0  0  0  0  0  0  0  0
    6.1402   -0.0386    0.3447 C   0  0  0  0  0  0  0  0  0  0  0  0
    6.7761    0.9874    1.0120 C   0  0  0  0  0  0  0  0  0  0  0  0
    8.0356    1.4308    0.5939 C   0  0  0  0  0  0  0  0  0  0  0  0
    4.8260   -0.5041    0.7776 C   0  0  0  0  0  0  0  0  0  0  0  0
    4.1447   -1.5032    0.1580 N   0  0  0  0  0  0  0  0  0  0  0  0
    2.9715   -1.7004    0.7852 C   0  0  0  0  0  0  0  0  0  0  0  0
    1.8997   -2.5520    0.6098 C   0  0  0  0  0  0  0  0  0  0  0  0
    0.7833   -2.5260    1.4422 C   0  0  0  0  0  0  0  0  0  0  0  0
   -0.3376   -3.4737    1.1892 C   0  0  0  0  0  0  0  0  0  0  0  0
   -1.2939   -2.7567    0.2927 C   0  0  0  0  0  0  0  0  0  0  0  0
   -1.1986   -2.7960   -1.0826 C   0  0  0  0  0  0  0  0  0  0  0  0
   -2.1395   -2.0946   -1.7965 C   0  0  0  0  0  0  0  0  0  0  0  0
   -3.1537   -1.3683   -1.1972 C   0  0  0  0  0  0  0  0  0  0  0  0
   -4.1803   -0.6123   -1.6062 N   0  0  0  0  0  0  0  0  0  0  0  0
   -4.8791   -0.1261   -0.5713 C   0  0  0  0  0  0  0  0  0  0  0  0
   -4.2759   -0.5899    0.5367 N   0  0  0  0  0  0  0  0  0  0  0  0
   -3.2197   -1.3510    0.1945 C   0  0  0  0  0  0  0  0  0  0  0  0
   -2.2985   -2.0392    0.9479 C   0  0  0  0  0  0  0  0  0  0  0  0
   -6.0567    0.7337   -0.6119 C   0  0  0  0  0  0  0  0  0  0  0  0
   -6.6072    1.1689   -1.7953 C   0  0  0  0  0  0  0  0  0  0  0  0
   -7.7177    1.9798   -1.8764 C   0  0  0  0  0  0  0  0  0  0  0  0
   -8.3103    2.3761   -0.6697 C   0  0  0  0  0  0  0  0  0  0  0  0
   -9.4117    3.1756   -0.6196 O   0  0  0  0  0  0  0  0  0  0  0  0
  -10.1344    3.7324   -1.6661 C   0  0  0  0  0  0  0  0  0  0  0  0
   -7.7677    1.9460    0.5377 C   0  0  0  0  0  0  0  0  0  0  0  0
   -6.6494    1.1305    0.5843 C   0  0  0  0  0  0  0  0  0  0  0  0
    0.7533   -1.6082    2.4847 C   0  0  0  0  0  0  0  0  0  0  0  0
    1.8238   -0.7325    2.6877 C   0  0  0  0  0  0  0  0  0  0  0  0
    2.9309   -0.7800    1.8379 C   0  0  0  0  0  0  0  0  0  0  0  0
    4.0738   -0.0580    1.8163 N   0  0  0  0  0  0  0  0  0  0  0  0
   10.3938    2.5596    0.6181 H   0  0  0  0  0  0  0  0  0  0  0  0
   11.7636    2.0217   -0.3604 H   0  0  0  0  0  0  0  0  0  0  0  0
   10.5676    3.1533   -1.0676 H   0  0  0  0  0  0  0  0  0  0  0  0
    8.5071   -0.6389   -2.0132 H   0  0  0  0  0  0  0  0  0  0  0  0
    6.2724   -1.4303   -1.2774 H   0  0  0  0  0  0  0  0  0  0  0  0
    6.2888    1.4591    1.8784 H   0  0  0  0  0  0  0  0  0  0  0  0
    8.4828    2.2242    1.1373 H   0  0  0  0  0  0  0  0  0  0  0  0
    1.9090   -3.2751   -0.1987 H   0  0  0  0  0  0  0  0  0  0  0  0
   -0.8019   -3.7381    2.1524 H   0  0  0  0  0  0  0  0  0  0  0  0
    0.0787   -4.3408    0.6456 H   0  0  0  0  0  0  0  0  0  0  0  0
   -0.3934   -3.3706   -1.5567 H   0  0  0  0  0  0  0  0  0  0  0  0
   -2.0739   -2.1190   -2.8791 H   0  0  0  0  0  0  0  0  0  0  0  0
   -4.4048   -0.4256   -2.6162 H   0  0  0  0  0  0  0  0  0  0  0  0
   -2.3530   -2.0219    2.0453 H   0  0  0  0  0  0  0  0  0  0  0  0
   -6.1543    0.8662   -2.7451 H   0  0  0  0  0  0  0  0  0  0  0  0
   -8.1129    2.2963   -2.8187 H   0  0  0  0  0  0  0  0  0  0  0  0
  -11.2147    3.4639   -1.4855 H   0  0  0  0  0  0  0  0  0  0  0  0
  -10.1010    4.8407   -1.6822 H   0  0  0  0  0  0  0  0  0  0  0  0
   -9.8730    3.2802   -2.6391 H   0  0  0  0  0  0  0  0  0  0  0  0
   -8.1901    2.2250    1.4899 H   0  0  0  0  0  0  0  0  0  0  0  0
   -6.2216    0.7916    1.5189 H   0  0  0  0  0  0  0  0  0  0  0  0
   -0.1251   -1.5845    3.1362 H   0  0  0  0  0  0  0  0  0  0  0  0
    1.7965   -0.0106    3.5105 H   0  0  0  0  0  0  0  0  0  0  0  0
    4.3619    0.7112    2.4645 H   0  0  0  0  0  0  0  0  0  0  0  0
  1  2  1  0
  2  3  1  0
  3  4  2  0
  4  5  1  0
  5  6  2  0
  6  7  1  0
  7  8  2  0
  6  9  1  0
  9 10  2  0
 10 11  1  0
 11 12  2  0
 12 13  1  0
 13 14  1  0
 14 15  1  0
 15 16  2  0
 16 17  1  0
 17 18  2  0
 18 19  1  0
 19 20  1  0
 20 21  2  0
 21 22  1  0
 22 23  2  0
 20 24  1  0
 24 25  2  0
 25 26  1  0
 26 27  2  0
 27 28  1  0
 28 29  1  0
 27 30  1  0
 30 31  2  0
 13 32  2  0
 32 33  1  0
 33 34  2  0
 34 35  1  0
  8  3  1  0
 35  9  1  0
 34 11  1  0
 23 15  1  0
 22 18  1  0
 31 24  1  0
  1 36  1  0
  1 37  1  0
  1 38  1  0
  4 39  1  0
  5 40  1  0
  7 41  1  0
  8 42  1  0
 12 43  1  0
 14 44  1  0
 14 45  1  0
 16 46  1  0
 17 47  1  0
 19 48  1  0
 23 49  1  0
 25 50  1  0
 26 51  1  0
 29 52  1  0
 29 53  1  0
 29 54  1  0
 30 55  1  0
 31 56  1  0
 32 57  1  0
 33 58  1  0
 35 59  1  0
M  END
>  <Batch_No>  (62) 
6844-3272

>  <EC50_nM>  (62) 
176.5

>  <Set>  (62) 
Probe-like

>  <Molecular_Weight>  (62) 
460.52646

>  <ALogP>  (62) 
6.653

$$$$
MMV020548
     RDKit          3D

 58 62  0  0  0  0  0  0  0  0999 V2000
    8.3353    1.4945   -1.9092 C   0  0  0  0  0  0  0  0  0  0  0  0
    8.0763    0.4161   -0.8652 C   0  0  0  0  0  0  0  0  0  0  0  0
    6.7469   -0.1340   -1.0351 N   0  0  0  0  0  0  0  0  0  0  0  0
    6.5469   -1.1479   -0.0281 C   0  0  0  0  0  0  0  0  0  0  0  0
    5.9766   -0.5653    1.2465 C   0  0  0  0  0  0  0  0  0  0  0  0
    4.6006   -0.1824    1.0015 N   0  0  0  0  0  0  0  0  0  0  0  0
    3.7723   -1.3537    1.3083 C   0  0  0  0  0  0  0  0  0  0  0  0
    2.3359   -1.1068    1.1029 C   0  0  0  0  0  0  0  0  0  0  0  0
    1.6702   -1.3256   -0.0847 C   0  0  0  0  0  0  0  0  0  0  0  0
    0.3070   -1.0642   -0.1911 C   0  0  0  0  0  0  0  0  0  0  0  0
   -0.4484   -0.5839    0.8493 C   0  0  0  0  0  0  0  0  0  0  0  0
   -1.8152   -0.2999    0.8144 N   0  0  0  0  0  0  0  0  0  0  0  0
   -2.6883   -0.4428   -0.2706 C   0  0  0  0  0  0  0  0  0  0  0  0
   -2.3104   -0.8637   -1.3828 O   0  0  0  0  0  0  0  0  0  0  0  0
   -4.1102   -0.0983   -0.1458 C   0  0  0  0  0  0  0  0  0  0  0  0
   -4.7344    0.3842    0.9942 C   0  0  0  0  0  0  0  0  0  0  0  0
   -6.0797    0.5960    0.7382 C   0  0  0  0  0  0  0  0  0  0  0  0
   -7.1600    1.0512    1.4667 C   0  0  0  0  0  0  0  0  0  0  0  0
   -8.4134    1.1495    0.9032 C   0  0  0  0  0  0  0  0  0  0  0  0
   -8.6049    0.7878   -0.4171 C   0  0  0  0  0  0  0  0  0  0  0  0
   -9.8621    0.8821   -0.9963 C   0  0  0  0  0  0  0  0  0  0  0  0
   -9.9997    0.5050   -2.3291 C   0  0  0  0  0  0  0  0  0  0  0  0
   -8.9001    0.0511   -3.0401 C   0  0  0  0  0  0  0  0  0  0  0  0
   -7.6976   -0.0292   -2.4536 N   0  0  0  0  0  0  0  0  0  0  0  0
   -7.5229    0.3272   -1.1623 C   0  0  0  0  0  0  0  0  0  0  0  0
   -6.2573    0.2299   -0.5872 C   0  0  0  0  0  0  0  0  0  0  0  0
   -5.0817   -0.1710   -1.0703 N   0  0  0  0  0  0  0  0  0  0  0  0
    0.2497   -0.3701    2.0434 C   0  0  0  0  0  0  0  0  0  0  0  0
    1.5824   -0.6239    2.1530 C   0  0  0  0  0  0  0  0  0  0  0  0
    4.4911    0.1964   -0.3732 C   0  0  0  0  0  0  0  0  0  0  0  0
    5.7341    0.9032   -0.8818 C   0  0  0  0  0  0  0  0  0  0  0  0
    7.7900    1.2538   -2.8654 H   0  0  0  0  0  0  0  0  0  0  0  0
    9.4367    1.4862   -2.0893 H   0  0  0  0  0  0  0  0  0  0  0  0
    7.9749    2.4539   -1.5010 H   0  0  0  0  0  0  0  0  0  0  0  0
    8.1344    0.8435    0.1563 H   0  0  0  0  0  0  0  0  0  0  0  0
    8.7986   -0.4135   -1.0106 H   0  0  0  0  0  0  0  0  0  0  0  0
    7.5253   -1.6142    0.2820 H   0  0  0  0  0  0  0  0  0  0  0  0
    5.9268   -1.9687   -0.4087 H   0  0  0  0  0  0  0  0  0  0  0  0
    6.0509   -1.3612    2.0238 H   0  0  0  0  0  0  0  0  0  0  0  0
    6.6037    0.2813    1.5735 H   0  0  0  0  0  0  0  0  0  0  0  0
    3.9440   -1.6655    2.3566 H   0  0  0  0  0  0  0  0  0  0  0  0
    4.0985   -2.1834    0.6491 H   0  0  0  0  0  0  0  0  0  0  0  0
    2.2174   -1.7009   -0.9281 H   0  0  0  0  0  0  0  0  0  0  0  0
   -0.1323   -1.2616   -1.1485 H   0  0  0  0  0  0  0  0  0  0  0  0
   -2.2610    0.0702    1.7125 H   0  0  0  0  0  0  0  0  0  0  0  0
   -4.2896    0.5877    1.9755 H   0  0  0  0  0  0  0  0  0  0  0  0
   -7.0227    1.3388    2.5060 H   0  0  0  0  0  0  0  0  0  0  0  0
   -9.2304    1.5159    1.5270 H   0  0  0  0  0  0  0  0  0  0  0  0
  -10.7113    1.2430   -0.4134 H   0  0  0  0  0  0  0  0  0  0  0  0
  -10.9754    0.5689   -2.8090 H   0  0  0  0  0  0  0  0  0  0  0  0
   -9.0513   -0.2321   -4.0747 H   0  0  0  0  0  0  0  0  0  0  0  0
   -4.9063   -0.5041   -2.0382 H   0  0  0  0  0  0  0  0  0  0  0  0
   -0.2703    0.0139    2.9347 H   0  0  0  0  0  0  0  0  0  0  0  0
    2.0731   -0.4434    3.0914 H   0  0  0  0  0  0  0  0  0  0  0  0
    4.4123   -0.7325   -0.9914 H   0  0  0  0  0  0  0  0  0  0  0  0
    3.5631    0.7682   -0.5347 H   0  0  0  0  0  0  0  0  0  0  0  0
    5.4948    1.3271   -1.8666 H   0  0  0  0  0  0  0  0  0  0  0  0
    6.0670    1.7171   -0.2261 H   0  0  0  0  0  0  0  0  0  0  0  0
  1  2  1  0
  2  3  1  0
  3  4  1  0
  4  5  1  0
  5  6  1  0
  6  7  1  0
  7  8  1  0
  8  9  2  0
  9 10  1  0
 10 11  2  0
 11 12  1  0
 12 13  1  0
 13 14  2  0
 13 15  1  0
 15 16  2  0
 16 17  1  0
 17 18  2  0
 18 19  1  0
 19 20  2  0
 20 21  1  0
 21 22  2  0
 22 23  1  0
 23 24  2  0
 24 25  1  0
 25 26  2  0
 26 27  1  0
 11 28  1  0
 28 29  2  0
  6 30  1  0
 30 31  1  0
 31  3  1  0
 29  8  1  0
 27 15  1  0
 26 17  1  0
 25 20  1  0
  1 32  1  0
  1 33  1  0
  1 34  1  0
  2 35  1  0
  2 36  1  0
  4 37  1  0
  4 38  1  0
  5 39  1  0
  5 40  1  0
  7 41  1  0
  7 42  1  0
  9 43  1  0
 10 44  1  0
 12 45  1  0
 16 46  1  0
 18 47  1  0
 19 48  1  0
 21 49  1  0
 22 50  1  0
 23 51  1  0
 27 52  1  0
 28 53  1  0
 29 54  1  0
 30 55  1  0
 30 56  1  0
 31 57  1  0
 31 58  1  0
M  END
>  <Batch_No>  (63) 
E950-0300

>  <EC50_nM>  (63) 
361

>  <Set>  (63) 
Drug-like

>  <Molecular_Weight>  (63) 
413.51478

>  <ALogP>  (63) 
3.765

$$$$
MMV019258
     RDKit          3D

 51 53  0  0  0  0  0  0  0  0999 V2000
    7.7424   -0.1675    1.1727 C   0  0  0  0  0  0  0  0  0  0  0  0
    7.1687    0.6782    0.2009 O   0  0  0  0  0  0  0  0  0  0  0  0
    5.8702    0.6131   -0.1985 C   0  0  0  0  0  0  0  0  0  0  0  0
    5.4176    1.5013   -1.1615 C   0  0  0  0  0  0  0  0  0  0  0  0
    4.1099    1.4892   -1.6137 C   0  0  0  0  0  0  0  0  0  0  0  0
    3.1731    0.5686   -1.1133 C   0  0  0  0  0  0  0  0  0  0  0  0
    3.6204   -0.3043   -0.1670 C   0  0  0  0  0  0  0  0  0  0  0  0
    2.7364   -1.2232    0.3463 O   0  0  0  0  0  0  0  0  0  0  0  0
    3.1610   -2.1373    1.3309 C   0  0  0  0  0  0  0  0  0  0  0  0
    4.9291   -0.2968    0.2891 C   0  0  0  0  0  0  0  0  0  0  0  0
    1.8734    0.6479   -1.6554 N   0  0  0  0  0  0  0  0  0  0  0  0
    1.6478    0.3577   -2.9776 C   0  0  0  0  0  0  0  0  0  0  0  0
    0.3111    0.5554   -3.2492 C   0  0  0  0  0  0  0  0  0  0  0  0
   -0.2551    0.9546   -2.1074 N   0  0  0  0  0  0  0  0  0  0  0  0
    0.7044    1.0077   -1.1432 C   0  0  0  0  0  0  0  0  0  0  0  0
    0.3190    1.4550    0.5309 S   0  0  0  0  0  0  0  0  0  0  0  0
   -0.3211    0.0779    1.4926 C   0  0  0  0  0  0  0  0  0  0  0  0
   -1.6702   -0.3526    0.9471 C   0  0  0  0  0  0  0  0  0  0  0  0
   -1.7898   -1.4555    0.3592 O   0  0  0  0  0  0  0  0  0  0  0  0
   -2.7196    0.5683    1.1546 N   0  0  0  0  0  0  0  0  0  0  0  0
   -4.0613    0.3897    0.7329 C   0  0  0  0  0  0  0  0  0  0  0  0
   -5.0345   -0.2037    1.5122 C   0  0  0  0  0  0  0  0  0  0  0  0
   -6.3469   -0.3460    1.0594 C   0  0  0  0  0  0  0  0  0  0  0  0
   -7.3726   -0.9983    1.9346 C   0  0  0  0  0  0  0  0  0  0  0  0
   -6.7198    0.0989   -0.1757 C   0  0  0  0  0  0  0  0  0  0  0  0
   -5.7690    0.6939   -0.9697 C   0  0  0  0  0  0  0  0  0  0  0  0
   -4.4739    0.8289   -0.5158 C   0  0  0  0  0  0  0  0  0  0  0  0
   -3.4939    1.4712   -1.4282 C   0  0  0  0  0  0  0  0  0  0  0  0
    7.8004   -1.2287    0.8577 H   0  0  0  0  0  0  0  0  0  0  0  0
    8.7944    0.1268    1.4019 H   0  0  0  0  0  0  0  0  0  0  0  0
    7.1140   -0.0854    2.0867 H   0  0  0  0  0  0  0  0  0  0  0  0
    6.1097    2.2288   -1.5779 H   0  0  0  0  0  0  0  0  0  0  0  0
    3.8483    2.2168   -2.3648 H   0  0  0  0  0  0  0  0  0  0  0  0
    2.3558   -2.8262    1.6466 H   0  0  0  0  0  0  0  0  0  0  0  0
    3.5052   -1.5171    2.2145 H   0  0  0  0  0  0  0  0  0  0  0  0
    4.0592   -2.6679    0.9177 H   0  0  0  0  0  0  0  0  0  0  0  0
    5.2827   -0.9853    1.0415 H   0  0  0  0  0  0  0  0  0  0  0  0
    2.3663    0.0231   -3.7205 H   0  0  0  0  0  0  0  0  0  0  0  0
   -0.2390    0.4225   -4.1787 H   0  0  0  0  0  0  0  0  0  0  0  0
   -0.4839    0.4361    2.5400 H   0  0  0  0  0  0  0  0  0  0  0  0
    0.3725   -0.7655    1.4505 H   0  0  0  0  0  0  0  0  0  0  0  0
   -2.5278    1.4819    1.6626 H   0  0  0  0  0  0  0  0  0  0  0  0
   -4.7340   -0.5674    2.5086 H   0  0  0  0  0  0  0  0  0  0  0  0
   -8.2296   -0.3104    2.1203 H   0  0  0  0  0  0  0  0  0  0  0  0
   -7.7419   -1.9189    1.4529 H   0  0  0  0  0  0  0  0  0  0  0  0
   -6.8868   -1.2178    2.9085 H   0  0  0  0  0  0  0  0  0  0  0  0
   -7.7388   -0.0260   -0.4860 H   0  0  0  0  0  0  0  0  0  0  0  0
   -6.0912    1.0419   -1.9492 H   0  0  0  0  0  0  0  0  0  0  0  0
   -2.7059    2.0031   -0.8737 H   0  0  0  0  0  0  0  0  0  0  0  0
   -3.9668    2.1819   -2.1517 H   0  0  0  0  0  0  0  0  0  0  0  0
   -3.0196    0.6940   -2.0950 H   0  0  0  0  0  0  0  0  0  0  0  0
  1  2  1  0
  2  3  1  0
  3  4  2  0
  4  5  1  0
  5  6  2  0
  6  7  1  0
  7  8  1  0
  8  9  1  0
  7 10  2  0
  6 11  1  0
 11 12  1  0
 12 13  2  0
 13 14  1  0
 14 15  2  0
 15 16  1  0
 16 17  1  0
 17 18  1  0
 18 19  2  0
 18 20  1  0
 20 21  1  0
 21 22  2  0
 22 23  1  0
 23 24  1  0
 23 25  2  0
 25 26  1  0
 26 27  2  0
 27 28  1  0
 10  3  1  0
 15 11  1  0
 27 21  1  0
  1 29  1  0
  1 30  1  0
  1 31  1  0
  4 32  1  0
  5 33  1  0
  9 34  1  0
  9 35  1  0
  9 36  1  0
 10 37  1  0
 12 38  1  0
 13 39  1  0
 17 40  1  0
 17 41  1  0
 20 42  1  0
 22 43  1  0
 24 44  1  0
 24 45  1  0
 24 46  1  0
 25 47  1  0
 26 48  1  0
 28 49  1  0
 28 50  1  0
 28 51  1  0
M  END
>  <Batch_No>  (64) 
G856-2051

>  <EC50_nM>  (64) 
170

>  <Set>  (64) 
Drug-like

>  <Molecular_Weight>  (64) 
397.49061

>  <ALogP>  (64) 
4.159

$$$$
MMV007686
     RDKit          3D

 47 48  0  0  0  0  0  0  0  0999 V2000
    5.6787    0.3074    0.8621 C   0  0  0  0  0  0  0  0  0  0  0  0
    4.6691   -0.0411    1.9398 C   0  0  0  0  0  0  0  0  0  0  0  0
    3.7762   -1.1734    1.4897 C   0  0  0  0  0  0  0  0  0  0  0  0
    3.0001   -0.8254    0.2362 C   0  0  0  0  0  0  0  0  0  0  0  0
    2.0995   -1.9792   -0.2104 C   0  0  0  0  0  0  0  0  0  0  0  0
    1.3792   -1.5128   -1.4667 C   0  0  0  0  0  0  0  0  0  0  0  0
    0.6007   -0.3746   -1.2424 O   0  0  0  0  0  0  0  0  0  0  0  0
   -0.4530   -0.2539   -0.3606 C   0  0  0  0  0  0  0  0  0  0  0  0
   -0.7366   -1.2985    0.3148 O   0  0  0  0  0  0  0  0  0  0  0  0
   -1.2154    0.9940   -0.1947 C   0  0  0  0  0  0  0  0  0  0  0  0
   -0.9358    2.0832   -0.8846 C   0  0  0  0  0  0  0  0  0  0  0  0
    0.1949    2.0546   -1.8718 C   0  0  0  0  0  0  0  0  0  0  0  0
   -1.6573    3.3072   -0.7451 N   0  0  0  0  0  0  0  0  0  0  0  0
   -2.7336    3.3776    0.1771 C   0  0  0  0  0  0  0  0  0  0  0  0
   -3.3839    4.4383    0.3202 O   0  0  0  0  0  0  0  0  0  0  0  0
   -3.0287    2.2008    0.9163 N   0  0  0  0  0  0  0  0  0  0  0  0
   -2.3195    0.9694    0.7906 C   0  0  0  0  0  0  0  0  0  0  0  0
   -3.2665   -0.1637    0.5023 C   0  0  0  0  0  0  0  0  0  0  0  0
   -3.7415   -0.9885    1.5005 C   0  0  0  0  0  0  0  0  0  0  0  0
   -4.6163   -2.0137    1.1386 C   0  0  0  0  0  0  0  0  0  0  0  0
   -5.0078   -2.2160   -0.1671 C   0  0  0  0  0  0  0  0  0  0  0  0
   -4.5047   -1.3610   -1.1410 C   0  0  0  0  0  0  0  0  0  0  0  0
   -3.6373   -0.3327   -0.8347 C   0  0  0  0  0  0  0  0  0  0  0  0
   -3.1552    0.4884   -1.7762 F   0  0  0  0  0  0  0  0  0  0  0  0
    6.7241    0.2045    1.2425 H   0  0  0  0  0  0  0  0  0  0  0  0
    5.5430    1.3737    0.6037 H   0  0  0  0  0  0  0  0  0  0  0  0
    5.5922   -0.3547   -0.0234 H   0  0  0  0  0  0  0  0  0  0  0  0
    5.2053   -0.4263    2.8430 H   0  0  0  0  0  0  0  0  0  0  0  0
    4.0572    0.8300    2.2133 H   0  0  0  0  0  0  0  0  0  0  0  0
    3.0334   -1.3522    2.3027 H   0  0  0  0  0  0  0  0  0  0  0  0
    4.3827   -2.0706    1.3797 H   0  0  0  0  0  0  0  0  0  0  0  0
    2.3421    0.0343    0.4274 H   0  0  0  0  0  0  0  0  0  0  0  0
    3.6482   -0.5736   -0.6084 H   0  0  0  0  0  0  0  0  0  0  0  0
    1.3846   -2.2313    0.5734 H   0  0  0  0  0  0  0  0  0  0  0  0
    2.7286   -2.8628   -0.4387 H   0  0  0  0  0  0  0  0  0  0  0  0
    2.1149   -1.2378   -2.2494 H   0  0  0  0  0  0  0  0  0  0  0  0
    0.8157   -2.3821   -1.8901 H   0  0  0  0  0  0  0  0  0  0  0  0
    1.1748    1.8783   -1.3955 H   0  0  0  0  0  0  0  0  0  0  0  0
    0.2963    3.0495   -2.3778 H   0  0  0  0  0  0  0  0  0  0  0  0
   -0.0598    1.3367   -2.6792 H   0  0  0  0  0  0  0  0  0  0  0  0
   -1.3888    4.1251   -1.3148 H   0  0  0  0  0  0  0  0  0  0  0  0
   -3.8172    2.2503    1.5928 H   0  0  0  0  0  0  0  0  0  0  0  0
   -1.8366    0.7745    1.7930 H   0  0  0  0  0  0  0  0  0  0  0  0
   -3.4327   -0.8254    2.5140 H   0  0  0  0  0  0  0  0  0  0  0  0
   -5.0146   -2.6871    1.8940 H   0  0  0  0  0  0  0  0  0  0  0  0
   -5.6893   -3.0225   -0.4137 H   0  0  0  0  0  0  0  0  0  0  0  0
   -4.8095   -1.5169   -2.1642 H   0  0  0  0  0  0  0  0  0  0  0  0
  1  2  1  0
  2  3  1  0
  3  4  1  0
  4  5  1  0
  5  6  1  0
  6  7  1  0
  7  8  1  0
  8  9  2  0
  8 10  1  0
 10 11  2  0
 11 12  1  0
 11 13  1  0
 13 14  1  0
 14 15  2  0
 14 16  1  0
 16 17  1  0
 17 18  1  0
 18 19  2  0
 19 20  1  0
 20 21  2  0
 21 22  1  0
 22 23  2  0
 23 24  1  0
 17 10  1  0
 23 18  1  0
  1 25  1  0
  1 26  1  0
  1 27  1  0
  2 28  1  0
  2 29  1  0
  3 30  1  0
  3 31  1  0
  4 32  1  0
  4 33  1  0
  5 34  1  0
  5 35  1  0
  6 36  1  0
  6 37  1  0
 12 38  1  0
 12 39  1  0
 12 40  1  0
 13 41  1  0
 16 42  1  0
 17 43  1  0
 19 44  1  0
 20 45  1  0
 21 46  1  0
 22 47  1  0
M  END
>  <Batch_No>  (65) 
2251-3046

>  <EC50_nM>  (65) 
106

>  <Set>  (65) 
Probe-like

>  <Molecular_Weight>  (65) 
334.38522

>  <ALogP>  (65) 
3.511

$$$$
MMV011256
     RDKit          3D

 31 33  0  0  0  0  0  0  0  0999 V2000
    1.7354   -0.4476    0.0389 N   0  0  0  0  0  0  0  0  0  0  0  0
    2.2130   -1.6944    0.0868 N   0  0  0  0  0  0  0  0  0  0  0  0
    2.8026    0.3594   -0.0349 C   0  0  0  0  0  0  0  0  0  0  0  0
    2.6348    1.7029   -0.0983 N   0  0  0  0  0  0  0  0  0  0  0  0
    1.4143    2.2634   -0.0888 C   0  0  0  0  0  0  0  0  0  0  0  0
    1.2193    3.7425   -0.1577 C   0  0  0  0  0  0  0  0  0  0  0  0
    0.3282    1.3923   -0.0105 C   0  0  0  0  0  0  0  0  0  0  0  0
    0.4537    0.0339    0.0540 C   0  0  0  0  0  0  0  0  0  0  0  0
   -0.6211   -0.8795    0.1540 N   0  0  0  0  0  0  0  0  0  0  0  0
   -1.9831   -0.6079    0.0205 C   0  0  0  0  0  0  0  0  0  0  0  0
   -2.5502    0.2782   -0.8619 C   0  0  0  0  0  0  0  0  0  0  0  0
   -3.9301    0.4989   -0.9048 C   0  0  0  0  0  0  0  0  0  0  0  0
   -2.8603   -1.2748    0.8686 C   0  0  0  0  0  0  0  0  0  0  0  0
   -4.2206   -1.0734    0.8426 C   0  0  0  0  0  0  0  0  0  0  0  0
   -4.7709   -0.1750   -0.0540 C   0  0  0  0  0  0  0  0  0  0  0  0
   -6.5033    0.1115   -0.1196 Cl  0  0  0  0  0  0  0  0  0  0  0  0
    3.9201   -0.3865   -0.0321 N   0  0  0  0  0  0  0  0  0  0  0  0
    3.5651   -1.6708    0.0439 C   0  0  0  0  0  0  0  0  0  0  0  0
    4.4129   -2.8942    0.0818 C   0  0  0  0  0  0  0  0  0  0  0  0
    3.8975   -3.8293    0.9736 F   0  0  0  0  0  0  0  0  0  0  0  0
    4.4110   -3.5133   -1.1617 F   0  0  0  0  0  0  0  0  0  0  0  0
    5.7082   -2.5904    0.4479 F   0  0  0  0  0  0  0  0  0  0  0  0
    1.4185    4.1269    0.8643 H   0  0  0  0  0  0  0  0  0  0  0  0
    1.8353    4.2248   -0.9229 H   0  0  0  0  0  0  0  0  0  0  0  0
    0.1148    3.9144   -0.3179 H   0  0  0  0  0  0  0  0  0  0  0  0
   -0.6374    1.8557    0.0088 H   0  0  0  0  0  0  0  0  0  0  0  0
   -0.3608   -1.8968    0.3554 H   0  0  0  0  0  0  0  0  0  0  0  0
   -1.9639    0.8173   -1.5575 H   0  0  0  0  0  0  0  0  0  0  0  0
   -4.3378    1.2048   -1.6138 H   0  0  0  0  0  0  0  0  0  0  0  0
   -2.4756   -1.9839    1.5839 H   0  0  0  0  0  0  0  0  0  0  0  0
   -4.8695   -1.6093    1.5116 H   0  0  0  0  0  0  0  0  0  0  0  0
  1  2  1  0
  1  3  1  0
  3  4  1  0
  4  5  2  0
  5  6  1  0
  5  7  1  0
  7  8  2  0
  8  9  1  0
  9 10  1  0
 10 11  2  0
 11 12  1  0
 10 13  1  0
 13 14  2  0
 14 15  1  0
 15 16  1  0
  3 17  2  0
 17 18  1  0
 18 19  1  0
 19 20  1  0
 19 21  1  0
 19 22  1  0
  8  1  1  0
 18  2  2  0
 15 12  2  0
  6 23  1  0
  6 24  1  0
  6 25  1  0
  7 26  1  0
  9 27  1  0
 11 28  1  0
 12 29  1  0
 13 30  1  0
 14 31  1  0
M  END
>  <Batch_No>  (66) 
STK850448

>  <EC50_nM>  (66) 
212

>  <Set>  (66) 
Drug-like

>  <Molecular_Weight>  (66) 
327.69226

>  <ALogP>  (66) 
4.32

$$$$
MMV666693
     RDKit          3D

 38 40  0  0  0  0  0  0  0  0999 V2000
    6.2630    0.8012    0.6802 C   0  0  0  0  0  0  0  0  0  0  0  0
    5.2205   -0.0341    0.2760 O   0  0  0  0  0  0  0  0  0  0  0  0
    3.8841    0.3140    0.4052 C   0  0  0  0  0  0  0  0  0  0  0  0
    3.5913    1.5281    0.9527 C   0  0  0  0  0  0  0  0  0  0  0  0
    2.2848    1.8863    1.0876 C   0  0  0  0  0  0  0  0  0  0  0  0
    1.2895    1.0172    0.6692 C   0  0  0  0  0  0  0  0  0  0  0  0
    1.5151   -0.2126    0.1122 C   0  0  0  0  0  0  0  0  0  0  0  0
    0.5638   -1.1550   -0.3751 C   0  0  0  0  0  0  0  0  0  0  0  0
   -0.6963   -1.2277   -0.5703 C   0  0  0  0  0  0  0  0  0  0  0  0
   -1.8448   -0.3855   -0.4033 C   0  0  0  0  0  0  0  0  0  0  0  0
   -1.9095    0.8563    0.0221 N   0  0  0  0  0  0  0  0  0  0  0  0
   -3.0307    1.5422    0.1379 C   0  0  0  0  0  0  0  0  0  0  0  0
   -3.0106    2.7245    0.5519 O   0  0  0  0  0  0  0  0  0  0  0  0
   -4.2289    0.9539   -0.1984 C   0  0  0  0  0  0  0  0  0  0  0  0
   -5.4084    1.6536   -0.0841 C   0  0  0  0  0  0  0  0  0  0  0  0
   -6.5770    1.0071   -0.4375 C   0  0  0  0  0  0  0  0  0  0  0  0
   -6.5522   -0.2952   -0.8884 C   0  0  0  0  0  0  0  0  0  0  0  0
   -5.3359   -0.9736   -0.9912 C   0  0  0  0  0  0  0  0  0  0  0  0
   -4.1703   -0.3434   -0.6438 C   0  0  0  0  0  0  0  0  0  0  0  0
   -3.0352   -0.9335   -0.7248 O   0  0  0  0  0  0  0  0  0  0  0  0
    2.8899   -0.5395   -0.0064 C   0  0  0  0  0  0  0  0  0  0  0  0
    3.3021   -1.7489   -0.5493 O   0  0  0  0  0  0  0  0  0  0  0  0
    3.5235   -2.9325    0.1543 C   0  0  0  0  0  0  0  0  0  0  0  0
    7.2163    0.2216    0.5740 H   0  0  0  0  0  0  0  0  0  0  0  0
    6.0790    1.0814    1.7328 H   0  0  0  0  0  0  0  0  0  0  0  0
    6.2554    1.6952    0.0243 H   0  0  0  0  0  0  0  0  0  0  0  0
    4.3652    2.1944    1.2734 H   0  0  0  0  0  0  0  0  0  0  0  0
    2.0324    2.8534    1.5233 H   0  0  0  0  0  0  0  0  0  0  0  0
    0.3005    1.3478    0.8181 H   0  0  0  0  0  0  0  0  0  0  0  0
    1.0768   -2.1544   -0.6752 H   0  0  0  0  0  0  0  0  0  0  0  0
   -0.9899   -2.2622   -1.0051 H   0  0  0  0  0  0  0  0  0  0  0  0
   -5.3920    2.6591    0.2679 H   0  0  0  0  0  0  0  0  0  0  0  0
   -7.5366    1.4994   -0.3713 H   0  0  0  0  0  0  0  0  0  0  0  0
   -7.4945   -0.7908   -1.1644 H   0  0  0  0  0  0  0  0  0  0  0  0
   -5.3366   -1.9957   -1.3473 H   0  0  0  0  0  0  0  0  0  0  0  0
    2.8726   -3.7205   -0.2974 H   0  0  0  0  0  0  0  0  0  0  0  0
    4.5727   -3.2566   -0.1104 H   0  0  0  0  0  0  0  0  0  0  0  0
    3.4511   -2.8751    1.2405 H   0  0  0  0  0  0  0  0  0  0  0  0
  1  2  1  0
  2  3  1  0
  3  4  2  0
  4  5  1  0
  5  6  2  0
  6  7  1  0
  7  8  1  0
  8  9  2  3
  9 10  1  0
 10 11  2  0
 11 12  1  0
 12 13  2  0
 12 14  1  0
 14 15  2  0
 15 16  1  0
 16 17  2  0
 17 18  1  0
 18 19  2  0
 19 20  1  0
  7 21  2  0
 21 22  1  0
 22 23  1  0
 21  3  1  0
 20 10  1  0
 19 14  1  0
  1 24  1  0
  1 25  1  0
  1 26  1  0
  4 27  1  0
  5 28  1  0
  6 29  1  0
  8 30  1  0
  9 31  1  0
 15 32  1  0
 16 33  1  0
 17 34  1  0
 18 35  1  0
 23 36  1  0
 23 37  1  0
 23 38  1  0
M  END
>  <Batch_No>  (67) 
STK019462

>  <EC50_nM>  (67) 
23.8

>  <Set>  (67) 
Drug-like

>  <Molecular_Weight>  (67) 
309.31599

>  <ALogP>  (67) 
3.575

$$$$
MMV008956
     RDKit          3D

 50 52  0  0  0  0  0  0  0  0999 V2000
    6.1240   -0.7232    1.9376 C   0  0  0  0  0  0  0  0  0  0  0  0
    4.9684   -0.0656    1.2206 C   0  0  0  0  0  0  0  0  0  0  0  0
    3.7957   -0.8282    1.2861 O   0  0  0  0  0  0  0  0  0  0  0  0
    2.6483   -0.3480    0.6718 C   0  0  0  0  0  0  0  0  0  0  0  0
    2.7039    0.8640    0.0178 C   0  0  0  0  0  0  0  0  0  0  0  0
    1.5840    1.3762   -0.6059 C   0  0  0  0  0  0  0  0  0  0  0  0
    1.7331    2.6893   -1.2865 C   0  0  0  0  0  0  0  0  0  0  0  0
    0.6053    2.7641   -2.2933 C   0  0  0  0  0  0  0  0  0  0  0  0
   -0.6748    2.5220   -1.7081 N   0  0  0  0  0  0  0  0  0  0  0  0
   -0.8274    1.1575   -1.2227 C   0  0  0  0  0  0  0  0  0  0  0  0
   -2.0131    1.1757   -0.3425 C   0  0  0  0  0  0  0  0  0  0  0  0
   -3.0459    0.2516   -0.4697 C   0  0  0  0  0  0  0  0  0  0  0  0
   -4.1545    0.2783    0.3715 C   0  0  0  0  0  0  0  0  0  0  0  0
   -5.1877   -0.6271    0.2632 O   0  0  0  0  0  0  0  0  0  0  0  0
   -5.1823   -1.6485   -0.7162 C   0  0  0  0  0  0  0  0  0  0  0  0
   -4.2590    1.2397    1.3713 C   0  0  0  0  0  0  0  0  0  0  0  0
   -5.3493    1.2994    2.2307 O   0  0  0  0  0  0  0  0  0  0  0  0
   -3.2186    2.1394    1.4696 C   0  0  0  0  0  0  0  0  0  0  0  0
   -2.1165    2.1299    0.6496 C   0  0  0  0  0  0  0  0  0  0  0  0
   -0.8969    3.3513    0.9200 Cl  0  0  0  0  0  0  0  0  0  0  0  0
    0.4012    0.6679   -0.5725 C   0  0  0  0  0  0  0  0  0  0  0  0
    0.3829   -0.5457    0.0943 C   0  0  0  0  0  0  0  0  0  0  0  0
    1.4573   -1.0914    0.7219 C   0  0  0  0  0  0  0  0  0  0  0  0
    1.5150   -2.2775    1.3940 O   0  0  0  0  0  0  0  0  0  0  0  0
    0.5767   -3.2492    1.6309 C   0  0  0  0  0  0  0  0  0  0  0  0
   -0.0150   -3.9463    0.4559 C   0  0  0  0  0  0  0  0  0  0  0  0
    6.7342   -1.3596    1.2356 H   0  0  0  0  0  0  0  0  0  0  0  0
    5.8018   -1.3863    2.7563 H   0  0  0  0  0  0  0  0  0  0  0  0
    6.8473    0.0260    2.3180 H   0  0  0  0  0  0  0  0  0  0  0  0
    5.2704    0.0857    0.1500 H   0  0  0  0  0  0  0  0  0  0  0  0
    4.8515    0.9417    1.6618 H   0  0  0  0  0  0  0  0  0  0  0  0
    3.6277    1.4089   -0.0041 H   0  0  0  0  0  0  0  0  0  0  0  0
    1.7022    3.5304   -0.5703 H   0  0  0  0  0  0  0  0  0  0  0  0
    2.7058    2.7274   -1.8172 H   0  0  0  0  0  0  0  0  0  0  0  0
    0.7952    1.9406   -3.0341 H   0  0  0  0  0  0  0  0  0  0  0  0
    0.5951    3.7522   -2.7973 H   0  0  0  0  0  0  0  0  0  0  0  0
   -1.3886    2.6975   -2.4785 H   0  0  0  0  0  0  0  0  0  0  0  0
   -1.0741    0.5329   -2.1036 H   0  0  0  0  0  0  0  0  0  0  0  0
   -2.9983   -0.5186   -1.2433 H   0  0  0  0  0  0  0  0  0  0  0  0
   -6.0997   -2.2697   -0.6574 H   0  0  0  0  0  0  0  0  0  0  0  0
   -4.3277   -2.3331   -0.5037 H   0  0  0  0  0  0  0  0  0  0  0  0
   -5.0800   -1.1559   -1.7037 H   0  0  0  0  0  0  0  0  0  0  0  0
   -5.8808    0.4448    2.4359 H   0  0  0  0  0  0  0  0  0  0  0  0
   -3.3151    2.8865    2.2575 H   0  0  0  0  0  0  0  0  0  0  0  0
   -0.5584   -1.0661    0.1102 H   0  0  0  0  0  0  0  0  0  0  0  0
   -0.2878   -2.7554    2.1700 H   0  0  0  0  0  0  0  0  0  0  0  0
    1.0099   -4.0438    2.2876 H   0  0  0  0  0  0  0  0  0  0  0  0
   -0.5522   -3.3571   -0.2728 H   0  0  0  0  0  0  0  0  0  0  0  0
   -0.7087   -4.7816    0.7712 H   0  0  0  0  0  0  0  0  0  0  0  0
    0.7756   -4.5031   -0.1322 H   0  0  0  0  0  0  0  0  0  0  0  0
  1  2  1  0
  2  3  1  0
  3  4  1  0
  4  5  2  0
  5  6  1  0
  6  7  1  0
  7  8  1  0
  8  9  1  0
  9 10  1  0
 10 11  1  0
 11 12  2  0
 12 13  1  0
 13 14  1  0
 14 15  1  0
 13 16  2  0
 16 17  1  0
 16 18  1  0
 18 19  2  0
 19 20  1  0
 10 21  1  0
 21 22  1  0
 22 23  2  0
 23 24  1  0
 24 25  1  0
 25 26  1  0
 23  4  1  0
 21  6  2  0
 19 11  1  0
  1 27  1  0
  1 28  1  0
  1 29  1  0
  2 30  1  0
  2 31  1  0
  5 32  1  0
  7 33  1  0
  7 34  1  0
  8 35  1  0
  8 36  1  0
  9 37  1  0
 10 38  1  0
 12 39  1  0
 15 40  1  0
 15 41  1  0
 15 42  1  0
 17 43  1  0
 18 44  1  0
 22 45  1  0
 25 46  1  0
 25 47  1  0
 26 48  1  0
 26 49  1  0
 26 50  1  0
M  END
>  <Batch_No>  (68) 
STK678779

>  <EC50_nM>  (68) 
370

>  <Set>  (68) 
Drug-like

>  <Molecular_Weight>  (68) 
377.86185

>  <ALogP>  (68) 
4.125

$$$$
MMV665827
     RDKit          3D

 48 50  0  0  0  0  0  0  0  0999 V2000
    7.3160    1.1679    0.4116 C   0  0  0  0  0  0  0  0  0  0  0  0
    6.7308   -0.0915   -0.1477 C   0  0  0  0  0  0  0  0  0  0  0  0
    5.3248   -0.0380   -0.0586 O   0  0  0  0  0  0  0  0  0  0  0  0
    4.4505   -1.0110   -0.4714 C   0  0  0  0  0  0  0  0  0  0  0  0
    4.8800   -2.0765   -0.9868 O   0  0  0  0  0  0  0  0  0  0  0  0
    2.9960   -0.8012   -0.3074 C   0  0  0  0  0  0  0  0  0  0  0  0
    2.5251    0.3431    0.2466 C   0  0  0  0  0  0  0  0  0  0  0  0
    1.2198    0.6288    0.4392 N   0  0  0  0  0  0  0  0  0  0  0  0
    0.8253    1.8890    1.0436 C   0  0  0  0  0  0  0  0  0  0  0  0
    0.6263    2.9358   -0.0307 C   0  0  0  0  0  0  0  0  0  0  0  0
    0.3384   -0.3051    0.0449 C   0  0  0  0  0  0  0  0  0  0  0  0
   -1.0035   -0.0872    0.2075 C   0  0  0  0  0  0  0  0  0  0  0  0
   -1.9400   -1.0353   -0.1909 C   0  0  0  0  0  0  0  0  0  0  0  0
   -3.3208   -0.7448    0.0074 N   0  0  0  0  0  0  0  0  0  0  0  0
   -4.1930   -1.5621    0.8263 C   0  0  0  0  0  0  0  0  0  0  0  0
   -5.1353   -0.6532    1.5853 C   0  0  0  0  0  0  0  0  0  0  0  0
   -5.9565    0.2187    0.6818 C   0  0  0  0  0  0  0  0  0  0  0  0
   -5.3154    0.5803   -0.6098 C   0  0  0  0  0  0  0  0  0  0  0  0
   -3.8332    0.4437   -0.6681 C   0  0  0  0  0  0  0  0  0  0  0  0
   -1.5418   -2.2267   -0.7634 C   0  0  0  0  0  0  0  0  0  0  0  0
   -2.4671   -3.1450   -1.1484 F   0  0  0  0  0  0  0  0  0  0  0  0
   -0.2019   -2.4363   -0.9221 C   0  0  0  0  0  0  0  0  0  0  0  0
    0.7625   -1.5006   -0.5308 C   0  0  0  0  0  0  0  0  0  0  0  0
    2.1061   -1.7622   -0.7139 C   0  0  0  0  0  0  0  0  0  0  0  0
    2.4996   -2.8409   -1.2338 O   0  0  0  0  0  0  0  0  0  0  0  0
    6.5423    1.8835    0.7592 H   0  0  0  0  0  0  0  0  0  0  0  0
    7.9244    0.9111    1.3016 H   0  0  0  0  0  0  0  0  0  0  0  0
    7.9523    1.6790   -0.3165 H   0  0  0  0  0  0  0  0  0  0  0  0
    7.1556   -0.9851    0.3543 H   0  0  0  0  0  0  0  0  0  0  0  0
    6.9960   -0.1559   -1.2209 H   0  0  0  0  0  0  0  0  0  0  0  0
    3.2527    1.0901    0.5610 H   0  0  0  0  0  0  0  0  0  0  0  0
    1.7150    2.2536    1.6332 H   0  0  0  0  0  0  0  0  0  0  0  0
    0.0174    1.8173    1.7696 H   0  0  0  0  0  0  0  0  0  0  0  0
   -0.1741    2.7045   -0.7437 H   0  0  0  0  0  0  0  0  0  0  0  0
    1.5959    3.0476   -0.5629 H   0  0  0  0  0  0  0  0  0  0  0  0
    0.4734    3.9195    0.4756 H   0  0  0  0  0  0  0  0  0  0  0  0
   -1.3559    0.8141    0.6430 H   0  0  0  0  0  0  0  0  0  0  0  0
   -3.6122   -2.0989    1.6264 H   0  0  0  0  0  0  0  0  0  0  0  0
   -4.7442   -2.3290    0.2615 H   0  0  0  0  0  0  0  0  0  0  0  0
   -5.8117   -1.2888    2.1665 H   0  0  0  0  0  0  0  0  0  0  0  0
   -4.5096   -0.0065    2.2318 H   0  0  0  0  0  0  0  0  0  0  0  0
   -6.9448   -0.2395    0.4665 H   0  0  0  0  0  0  0  0  0  0  0  0
   -6.2034    1.1402    1.2810 H   0  0  0  0  0  0  0  0  0  0  0  0
   -5.5473    1.6561   -0.8194 H   0  0  0  0  0  0  0  0  0  0  0  0
   -5.7469    0.0311   -1.4864 H   0  0  0  0  0  0  0  0  0  0  0  0
   -3.5130    0.3330   -1.7295 H   0  0  0  0  0  0  0  0  0  0  0  0
   -3.2753    1.3092   -0.2560 H   0  0  0  0  0  0  0  0  0  0  0  0
    0.1205   -3.3760   -1.3741 H   0  0  0  0  0  0  0  0  0  0  0  0
  1  2  1  0
  2  3  1  0
  3  4  1  0
  4  5  2  0
  4  6  1  0
  6  7  2  0
  7  8  1  0
  8  9  1  0
  9 10  1  0
  8 11  1  0
 11 12  2  0
 12 13  1  0
 13 14  1  0
 14 15  1  0
 15 16  1  0
 16 17  1  0
 17 18  1  0
 18 19  1  0
 13 20  2  0
 20 21  1  0
 20 22  1  0
 22 23  2  0
 23 24  1  0
 24 25  2  0
 24  6  1  0
 23 11  1  0
 19 14  1  0
  1 26  1  0
  1 27  1  0
  1 28  1  0
  2 29  1  0
  2 30  1  0
  7 31  1  0
  9 32  1  0
  9 33  1  0
 10 34  1  0
 10 35  1  0
 10 36  1  0
 12 37  1  0
 15 38  1  0
 15 39  1  0
 16 40  1  0
 16 41  1  0
 17 42  1  0
 17 43  1  0
 18 44  1  0
 18 45  1  0
 19 46  1  0
 19 47  1  0
 22 48  1  0
M  END
>  <Batch_No>  (69) 
OSSK_363087

>  <EC50_nM>  (69) 
119

>  <Set>  (69) 
Probe-like

>  <Molecular_Weight>  (69) 
346.39592

>  <ALogP>  (69) 
3.364

$$$$
MMV001038
     RDKit          3D

 43 45  0  0  0  0  0  0  0  0999 V2000
   -1.8180    0.1148    0.5968 N   0  0  0  0  0  0  0  0  0  0  0  0
   -2.9253    0.1418   -0.1528 C   0  0  0  0  0  0  0  0  0  0  0  0
   -4.1952    0.1342    0.4847 N   0  0  0  0  0  0  0  0  0  0  0  0
   -4.2670    0.0899    1.9535 C   0  0  0  0  0  0  0  0  0  0  0  0
   -3.6670   -1.1419    2.5405 C   0  0  0  0  0  0  0  0  0  0  0  0
   -3.8079   -1.0442    3.9263 O   0  0  0  0  0  0  0  0  0  0  0  0
   -2.8516    0.1806   -1.5258 C   0  0  0  0  0  0  0  0  0  0  0  0
   -1.6025    0.1909   -2.1050 C   0  0  0  0  0  0  0  0  0  0  0  0
   -1.4172    0.2293   -3.4851 C   0  0  0  0  0  0  0  0  0  0  0  0
   -2.5265    0.2578   -4.2891 C   0  0  0  0  0  0  0  0  0  0  0  0
   -3.7883    0.2478   -3.7193 C   0  0  0  0  0  0  0  0  0  0  0  0
   -3.9448    0.2097   -2.3545 C   0  0  0  0  0  0  0  0  0  0  0  0
   -0.5369    0.1624   -1.2957 N   0  0  0  0  0  0  0  0  0  0  0  0
   -0.5914    0.1246    0.0392 C   0  0  0  0  0  0  0  0  0  0  0  0
    0.5263    0.0944    0.8998 N   0  0  0  0  0  0  0  0  0  0  0  0
    1.8846    0.0981    0.5298 C   0  0  0  0  0  0  0  0  0  0  0  0
    2.3657    0.1316   -0.7521 C   0  0  0  0  0  0  0  0  0  0  0  0
    3.7336    0.1333   -1.0460 C   0  0  0  0  0  0  0  0  0  0  0  0
    4.6718    0.1008   -0.0390 C   0  0  0  0  0  0  0  0  0  0  0  0
    6.1021    0.1041   -0.4035 C   0  0  0  0  0  0  0  0  0  0  0  0
    4.2036    0.0669    1.2564 C   0  0  0  0  0  0  0  0  0  0  0  0
    5.2112    0.0317    2.3477 C   0  0  0  0  0  0  0  0  0  0  0  0
    2.8574    0.0655    1.5364 C   0  0  0  0  0  0  0  0  0  0  0  0
   -5.1070    0.1575    0.0047 H   0  0  0  0  0  0  0  0  0  0  0  0
   -3.7341    1.0059    2.3419 H   0  0  0  0  0  0  0  0  0  0  0  0
   -5.3055    0.1851    2.3247 H   0  0  0  0  0  0  0  0  0  0  0  0
   -4.2814   -2.0033    2.1512 H   0  0  0  0  0  0  0  0  0  0  0  0
   -2.6089   -1.2812    2.3246 H   0  0  0  0  0  0  0  0  0  0  0  0
   -4.6466   -0.5998    4.1699 H   0  0  0  0  0  0  0  0  0  0  0  0
   -0.4316    0.2366   -3.9124 H   0  0  0  0  0  0  0  0  0  0  0  0
   -2.4347    0.2882   -5.3700 H   0  0  0  0  0  0  0  0  0  0  0  0
   -4.6833    0.2703   -4.3508 H   0  0  0  0  0  0  0  0  0  0  0  0
   -4.9390    0.2029   -1.9473 H   0  0  0  0  0  0  0  0  0  0  0  0
    0.3308    0.0655    1.9454 H   0  0  0  0  0  0  0  0  0  0  0  0
    1.7126    0.1581   -1.5931 H   0  0  0  0  0  0  0  0  0  0  0  0
    4.0672    0.1603   -2.0711 H   0  0  0  0  0  0  0  0  0  0  0  0
    6.3466   -0.8275   -0.9880 H   0  0  0  0  0  0  0  0  0  0  0  0
    6.7712    0.0823    0.4616 H   0  0  0  0  0  0  0  0  0  0  0  0
    6.3924    0.9759   -1.0106 H   0  0  0  0  0  0  0  0  0  0  0  0
    4.6964    0.3200    3.2829 H   0  0  0  0  0  0  0  0  0  0  0  0
    5.9979    0.8146    2.2014 H   0  0  0  0  0  0  0  0  0  0  0  0
    5.6546   -0.9730    2.5026 H   0  0  0  0  0  0  0  0  0  0  0  0
    2.5859    0.0374    2.5891 H   0  0  0  0  0  0  0  0  0  0  0  0
  1  2  2  0
  2  3  1  0
  3  4  1  0
  4  5  1  0
  5  6  1  0
  2  7  1  0
  7  8  2  0
  8  9  1  0
  9 10  2  0
 10 11  1  0
 11 12  2  0
  8 13  1  0
 13 14  2  0
 14 15  1  0
 15 16  1  0
 16 17  2  0
 17 18  1  0
 18 19  2  0
 19 20  1  0
 19 21  1  0
 21 22  1  0
 16 23  1  0
 14  1  1  0
 12  7  1  0
 23 21  2  0
  3 24  1  0
  4 25  1  0
  4 26  1  0
  5 27  1  0
  5 28  1  0
  6 29  1  0
  9 30  1  0
 10 31  1  0
 11 32  1  0
 12 33  1  0
 15 34  1  0
 17 35  1  0
 18 36  1  0
 20 37  1  0
 20 38  1  0
 20 39  1  0
 22 40  1  0
 22 41  1  0
 22 42  1  0
 23 43  1  0
M  END
>  <Batch_No>  (70) 
OSSL_323940

>  <EC50_nM>  (70) 
428

>  <Set>  (70) 
Drug-like

>  <Molecular_Weight>  (70) 
308.37759

>  <ALogP>  (70) 
3.13

$$$$
MMV007839
     RDKit          3D

 30 31  0  0  0  0  0  0  0  0999 V2000
   -2.0431   -0.4542   -0.2536 C   0  0  0  0  0  0  0  0  0  0  0  0
   -2.1229   -1.6331    0.4914 O   0  0  0  0  0  0  0  0  0  0  0  0
   -1.7549   -0.8001   -1.6754 C   0  0  0  0  0  0  0  0  0  0  0  0
   -0.3635   -0.4551   -2.0887 C   0  0  0  0  0  0  0  0  0  0  0  0
   -0.0723   -0.3245   -3.3026 O   0  0  0  0  0  0  0  0  0  0  0  0
    0.6926   -0.2614   -1.0893 C   0  0  0  0  0  0  0  0  0  0  0  0
    2.0187   -0.4813   -1.3890 C   0  0  0  0  0  0  0  0  0  0  0  0
    2.9706   -0.2828   -0.4082 C   0  0  0  0  0  0  0  0  0  0  0  0
    2.5612    0.1311    0.8458 C   0  0  0  0  0  0  0  0  0  0  0  0
    3.4933    0.3399    1.8547 O   0  0  0  0  0  0  0  0  0  0  0  0
    4.8586    0.1160    1.5547 C   0  0  0  0  0  0  0  0  0  0  0  0
    1.2383    0.3577    1.1692 C   0  0  0  0  0  0  0  0  0  0  0  0
    0.3030    0.1550    0.1797 C   0  0  0  0  0  0  0  0  0  0  0  0
   -1.0604    0.3444    0.3645 O   0  0  0  0  0  0  0  0  0  0  0  0
   -3.3547    0.3042   -0.2085 C   0  0  0  0  0  0  0  0  0  0  0  0
   -4.3855   -0.4546   -0.7247 F   0  0  0  0  0  0  0  0  0  0  0  0
   -3.1455    1.4436   -0.9943 F   0  0  0  0  0  0  0  0  0  0  0  0
   -3.7166    0.7764    1.1801 C   0  0  0  0  0  0  0  0  0  0  0  0
   -4.9337    1.4607    1.1203 F   0  0  0  0  0  0  0  0  0  0  0  0
   -3.7864   -0.3000    2.0261 F   0  0  0  0  0  0  0  0  0  0  0  0
   -2.7927    1.7178    1.6132 F   0  0  0  0  0  0  0  0  0  0  0  0
   -3.0365   -1.9631    0.6094 H   0  0  0  0  0  0  0  0  0  0  0  0
   -2.4144   -0.2428   -2.4008 H   0  0  0  0  0  0  0  0  0  0  0  0
   -1.9703   -1.8677   -1.8917 H   0  0  0  0  0  0  0  0  0  0  0  0
    2.2531   -0.8040   -2.3946 H   0  0  0  0  0  0  0  0  0  0  0  0
    4.0195   -0.4585   -0.6513 H   0  0  0  0  0  0  0  0  0  0  0  0
    5.0833    0.7687    0.6641 H   0  0  0  0  0  0  0  0  0  0  0  0
    5.5072    0.4073    2.4091 H   0  0  0  0  0  0  0  0  0  0  0  0
    5.0401   -0.9354    1.2420 H   0  0  0  0  0  0  0  0  0  0  0  0
    0.9137    0.6815    2.1485 H   0  0  0  0  0  0  0  0  0  0  0  0
  1  2  1  0
  1  3  1  0
  3  4  1  0
  4  5  2  0
  4  6  1  0
  6  7  1  0
  7  8  2  0
  8  9  1  0
  9 10  1  0
 10 11  1  0
  9 12  2  0
  6 13  2  0
 13 14  1  0
  1 15  1  0
 15 16  1  0
 15 17  1  0
 15 18  1  0
 18 19  1  0
 18 20  1  0
 18 21  1  0
 14  1  1  0
 13 12  1  0
  2 22  1  0
  3 23  1  0
  3 24  1  0
  7 25  1  0
  8 26  1  0
 11 27  1  0
 11 28  1  0
 11 29  1  0
 12 30  1  0
M  END
>  <Batch_No>  (71) 
6880895

>  <EC50_nM>  (71) 
283

>  <Set>  (71) 
Drug-like

>  <Molecular_Weight>  (71) 
312.18947

>  <ALogP>  (71) 
2.609

$$$$
MMV000662
     RDKit          3D

 57 60  0  0  0  0  0  0  0  0999 V2000
    7.3299    1.8740   -0.4791 C   0  0  0  0  0  0  0  0  0  0  0  0
    6.7597    1.3689    0.7105 O   0  0  0  0  0  0  0  0  0  0  0  0
    5.5479    0.7017    0.6142 C   0  0  0  0  0  0  0  0  0  0  0  0
    4.8770    0.5080   -0.5735 C   0  0  0  0  0  0  0  0  0  0  0  0
    3.6614   -0.1676   -0.6288 C   0  0  0  0  0  0  0  0  0  0  0  0
    3.1036   -0.6613    0.5319 C   0  0  0  0  0  0  0  0  0  0  0  0
    1.8553   -1.3514    0.4513 N   0  0  0  0  0  0  0  0  0  0  0  0
    0.6225   -0.6686    0.5707 C   0  0  0  0  0  0  0  0  0  0  0  0
    0.7109    0.5937    0.7563 O   0  0  0  0  0  0  0  0  0  0  0  0
   -0.7097   -1.2767    0.5016 C   0  0  0  0  0  0  0  0  0  0  0  0
   -1.7722   -0.3515    1.0370 C   0  0  0  0  0  0  0  0  0  0  0  0
   -2.3879    0.4760    0.0191 N   0  0  0  0  0  0  0  0  0  0  0  0
   -2.7961    1.8438    0.2230 C   0  0  0  0  0  0  0  0  0  0  0  0
   -1.7725    2.8786   -0.1104 C   0  0  0  0  0  0  0  0  0  0  0  0
   -2.3382    4.2883    0.1454 C   0  0  0  0  0  0  0  0  0  0  0  0
   -1.3731    2.8659   -1.5604 C   0  0  0  0  0  0  0  0  0  0  0  0
   -2.6350   -0.0908   -1.2642 C   0  0  0  0  0  0  0  0  0  0  0  0
   -3.4625    0.4604   -2.0677 O   0  0  0  0  0  0  0  0  0  0  0  0
   -1.9462   -1.3010   -1.6673 C   0  0  0  0  0  0  0  0  0  0  0  0
   -2.2637   -1.8331   -2.8971 C   0  0  0  0  0  0  0  0  0  0  0  0
   -1.6893   -3.0097   -3.3276 C   0  0  0  0  0  0  0  0  0  0  0  0
   -0.7991   -3.6208   -2.4891 C   0  0  0  0  0  0  0  0  0  0  0  0
   -0.4773   -3.0776   -1.2393 C   0  0  0  0  0  0  0  0  0  0  0  0
   -1.0446   -1.8962   -0.7938 C   0  0  0  0  0  0  0  0  0  0  0  0
   -2.8386   -1.1718    1.7024 C   0  0  0  0  0  0  0  0  0  0  0  0
   -3.0343   -1.4237    3.0497 C   0  0  0  0  0  0  0  0  0  0  0  0
   -4.0711   -2.1925    3.3829 C   0  0  0  0  0  0  0  0  0  0  0  0
   -4.8713   -2.6812    2.3816 C   0  0  0  0  0  0  0  0  0  0  0  0
   -4.1578   -2.0472    0.8892 S   0  0  0  0  0  0  0  0  0  0  0  0
    3.7568   -0.4805    1.7391 C   0  0  0  0  0  0  0  0  0  0  0  0
    4.9681    0.1966    1.7690 C   0  0  0  0  0  0  0  0  0  0  0  0
    8.1989    2.5165   -0.2097 H   0  0  0  0  0  0  0  0  0  0  0  0
    6.6196    2.3958   -1.1336 H   0  0  0  0  0  0  0  0  0  0  0  0
    7.7216    1.0045   -1.0817 H   0  0  0  0  0  0  0  0  0  0  0  0
    5.2947    0.8835   -1.4804 H   0  0  0  0  0  0  0  0  0  0  0  0
    3.1581   -0.3043   -1.5760 H   0  0  0  0  0  0  0  0  0  0  0  0
    1.9042   -2.3750    0.3068 H   0  0  0  0  0  0  0  0  0  0  0  0
   -0.6948   -2.1397    1.2384 H   0  0  0  0  0  0  0  0  0  0  0  0
   -1.2846    0.2946    1.7968 H   0  0  0  0  0  0  0  0  0  0  0  0
   -3.2193    2.0034    1.2475 H   0  0  0  0  0  0  0  0  0  0  0  0
   -3.6769    2.0671   -0.4515 H   0  0  0  0  0  0  0  0  0  0  0  0
   -0.9073    2.7535    0.5814 H   0  0  0  0  0  0  0  0  0  0  0  0
   -1.7107    4.9860   -0.4311 H   0  0  0  0  0  0  0  0  0  0  0  0
   -2.3754    4.5106    1.2193 H   0  0  0  0  0  0  0  0  0  0  0  0
   -3.3534    4.2776   -0.3204 H   0  0  0  0  0  0  0  0  0  0  0  0
   -2.3051    2.9514   -2.1592 H   0  0  0  0  0  0  0  0  0  0  0  0
   -0.7790    1.9666   -1.8545 H   0  0  0  0  0  0  0  0  0  0  0  0
   -0.7550    3.7425   -1.8294 H   0  0  0  0  0  0  0  0  0  0  0  0
   -2.9678   -1.3562   -3.5676 H   0  0  0  0  0  0  0  0  0  0  0  0
   -1.9058   -3.4591   -4.2741 H   0  0  0  0  0  0  0  0  0  0  0  0
   -0.3364   -4.5588   -2.8219 H   0  0  0  0  0  0  0  0  0  0  0  0
    0.2147   -3.6307   -0.6581 H   0  0  0  0  0  0  0  0  0  0  0  0
   -2.3323   -0.9830    3.7846 H   0  0  0  0  0  0  0  0  0  0  0  0
   -4.3108   -2.4518    4.4415 H   0  0  0  0  0  0  0  0  0  0  0  0
   -5.7454   -3.3136    2.4741 H   0  0  0  0  0  0  0  0  0  0  0  0
    3.3295   -0.8633    2.6580 H   0  0  0  0  0  0  0  0  0  0  0  0
    5.4665    0.3292    2.7244 H   0  0  0  0  0  0  0  0  0  0  0  0
  1  2  1  0
  2  3  1  0
  3  4  2  0
  4  5  1  0
  5  6  2  0
  6  7  1  0
  7  8  1  0
  8  9  2  0
  8 10  1  0
 10 11  1  0
 11 12  1  0
 12 13  1  0
 13 14  1  0
 14 15  1  0
 14 16  1  0
 12 17  1  0
 17 18  2  0
 17 19  1  0
 19 20  2  0
 20 21  1  0
 21 22  2  0
 22 23  1  0
 23 24  2  0
 11 25  1  0
 25 26  2  0
 26 27  1  0
 27 28  2  0
 28 29  1  0
  6 30  1  0
 30 31  2  0
 31  3  1  0
 24 10  1  0
 24 19  1  0
 29 25  1  0
  1 32  1  0
  1 33  1  0
  1 34  1  0
  4 35  1  0
  5 36  1  0
  7 37  1  0
 10 38  1  0
 11 39  1  0
 13 40  1  0
 13 41  1  0
 14 42  1  0
 15 43  1  0
 15 44  1  0
 15 45  1  0
 16 46  1  0
 16 47  1  0
 16 48  1  0
 20 49  1  0
 21 50  1  0
 22 51  1  0
 23 52  1  0
 26 53  1  0
 27 54  1  0
 28 55  1  0
 30 56  1  0
 31 57  1  0
M  END
>  <Batch_No>  (72) 
E456-0903

>  <EC50_nM>  (72) 
36.7

>  <Set>  (72) 
Drug-like

>  <Molecular_Weight>  (72) 
434.55054

>  <ALogP>  (72) 
4.427

$$$$
MMV396678
     RDKit          3D

 45 48  0  0  0  0  0  0  0  0999 V2000
   -1.6203   -0.9506    0.7005 C   0  0  0  0  0  0  0  0  0  0  0  0
   -2.7316   -0.1369    0.7192 C   0  0  0  0  0  0  0  0  0  0  0  0
   -3.7013   -0.6889   -0.1032 C   0  0  0  0  0  0  0  0  0  0  0  0
   -5.0114   -0.0622   -0.2992 C   0  0  0  0  0  0  0  0  0  0  0  0
   -5.3493    1.1277    0.3284 C   0  0  0  0  0  0  0  0  0  0  0  0
   -6.5575    1.7530    0.1829 C   0  0  0  0  0  0  0  0  0  0  0  0
   -7.4848    1.1480   -0.6448 C   0  0  0  0  0  0  0  0  0  0  0  0
   -7.2084   -0.0342   -1.2961 C   0  0  0  0  0  0  0  0  0  0  0  0
   -5.9811   -0.6242   -1.1178 C   0  0  0  0  0  0  0  0  0  0  0  0
   -3.1742   -1.7987   -0.5932 N   0  0  0  0  0  0  0  0  0  0  0  0
   -1.9318   -1.9655   -0.1203 N   0  0  0  0  0  0  0  0  0  0  0  0
   -0.9812   -2.9126   -0.3030 C   0  0  0  0  0  0  0  0  0  0  0  0
    0.2382   -2.8237    0.3296 C   0  0  0  0  0  0  0  0  0  0  0  0
    0.5469   -1.8009    1.1541 N   0  0  0  0  0  0  0  0  0  0  0  0
   -0.3731   -0.8694    1.3403 C   0  0  0  0  0  0  0  0  0  0  0  0
   -0.1631    0.5609    2.4057 S   0  0  0  0  0  0  0  0  0  0  0  0
    0.5118    1.8889    1.3772 C   0  0  0  0  0  0  0  0  0  0  0  0
    1.9035    1.5345    1.0135 C   0  0  0  0  0  0  0  0  0  0  0  0
    2.8037    2.1176    1.7138 O   0  0  0  0  0  0  0  0  0  0  0  0
    2.2939    0.6540    0.0109 N   0  0  0  0  0  0  0  0  0  0  0  0
    3.5981    0.2843   -0.3713 C   0  0  0  0  0  0  0  0  0  0  0  0
    3.7795   -0.6811   -1.3705 C   0  0  0  0  0  0  0  0  0  0  0  0
    2.3695   -1.4319   -2.1354 Cl  0  0  0  0  0  0  0  0  0  0  0  0
    5.0252   -1.0790   -1.7929 C   0  0  0  0  0  0  0  0  0  0  0  0
    6.1769   -0.5470   -1.2532 C   0  0  0  0  0  0  0  0  0  0  0  0
    6.0273    0.4000   -0.2726 C   0  0  0  0  0  0  0  0  0  0  0  0
    7.2470    1.0100    0.3493 C   0  0  0  0  0  0  0  0  0  0  0  0
    8.3272    0.1710    0.3069 F   0  0  0  0  0  0  0  0  0  0  0  0
    7.5190    2.2049   -0.3246 F   0  0  0  0  0  0  0  0  0  0  0  0
    6.8906    1.3845    1.6251 F   0  0  0  0  0  0  0  0  0  0  0  0
    4.7592    0.8048    0.1576 C   0  0  0  0  0  0  0  0  0  0  0  0
   -2.8307    0.7785    1.2761 H   0  0  0  0  0  0  0  0  0  0  0  0
   -4.6313    1.6338    0.9898 H   0  0  0  0  0  0  0  0  0  0  0  0
   -6.7509    2.6897    0.7104 H   0  0  0  0  0  0  0  0  0  0  0  0
   -8.4427    1.6715   -0.7394 H   0  0  0  0  0  0  0  0  0  0  0  0
   -7.9893   -0.4372   -1.9198 H   0  0  0  0  0  0  0  0  0  0  0  0
   -5.7486   -1.5519   -1.6164 H   0  0  0  0  0  0  0  0  0  0  0  0
   -1.2327   -3.7235   -0.9598 H   0  0  0  0  0  0  0  0  0  0  0  0
    0.9609   -3.6310    0.1312 H   0  0  0  0  0  0  0  0  0  0  0  0
    0.4619    2.8525    1.9183 H   0  0  0  0  0  0  0  0  0  0  0  0
   -0.1377    1.9861    0.4842 H   0  0  0  0  0  0  0  0  0  0  0  0
    1.5059    0.1928   -0.5445 H   0  0  0  0  0  0  0  0  0  0  0  0
    5.1622   -1.8267   -2.5661 H   0  0  0  0  0  0  0  0  0  0  0  0
    7.1703   -0.8221   -1.5456 H   0  0  0  0  0  0  0  0  0  0  0  0
    4.7543    1.5503    0.9245 H   0  0  0  0  0  0  0  0  0  0  0  0
  1  2  2  0
  2  3  1  0
  3  4  1  0
  4  5  2  0
  5  6  1  0
  6  7  2  0
  7  8  1  0
  8  9  2  0
  3 10  2  0
  1 11  1  0
 11 12  1  0
 12 13  2  0
 13 14  1  0
 14 15  2  0
 15 16  1  0
 16 17  1  0
 17 18  1  0
 18 19  2  0
 18 20  1  0
 20 21  1  0
 21 22  2  0
 22 23  1  0
 22 24  1  0
 24 25  2  0
 25 26  1  0
 26 27  1  0
 27 28  1  0
 27 29  1  0
 27 30  1  0
 21 31  1  0
 15  1  1  0
  9  4  1  0
 11 10  1  0
 31 26  2  0
  2 32  1  0
  5 33  1  0
  6 34  1  0
  7 35  1  0
  8 36  1  0
  9 37  1  0
 12 38  1  0
 13 39  1  0
 17 40  1  0
 17 41  1  0
 20 42  1  0
 24 43  1  0
 25 44  1  0
 31 45  1  0
M  END
>  <Batch_No>  (73) 
G420-0024

>  <EC50_nM>  (73) 
218

>  <Set>  (73) 
Probe-like

>  <Molecular_Weight>  (73) 
462.87526

>  <ALogP>  (73) 
5.178

$$$$
MMV006861
     RDKit          3D

 48 52  0  0  0  0  0  0  0  0999 V2000
   -5.3502   -1.8674   -1.3383 C   0  0  0  0  0  0  0  0  0  0  0  0
   -3.9448   -1.4875   -1.0378 C   0  0  0  0  0  0  0  0  0  0  0  0
   -3.7505   -0.1134   -0.6816 N   0  0  0  0  0  0  0  0  0  0  0  0
   -4.7413    0.8516   -1.0891 C   0  0  0  0  0  0  0  0  0  0  0  0
   -5.4946    0.2433   -2.2641 C   0  0  0  0  0  0  0  0  0  0  0  0
   -6.1748   -0.8400   -1.7637 O   0  0  0  0  0  0  0  0  0  0  0  0
   -2.6130    0.3142    0.0569 C   0  0  0  0  0  0  0  0  0  0  0  0
   -1.6358   -0.5745    0.4538 C   0  0  0  0  0  0  0  0  0  0  0  0
   -0.5384   -0.1537    1.1686 C   0  0  0  0  0  0  0  0  0  0  0  0
   -0.3558    1.1863    1.5283 C   0  0  0  0  0  0  0  0  0  0  0  0
    0.7485    1.6494    2.2542 N   0  0  0  0  0  0  0  0  0  0  0  0
    1.9039    0.9062    2.5727 C   0  0  0  0  0  0  0  0  0  0  0  0
    2.1603    0.7014    3.9293 C   0  0  0  0  0  0  0  0  0  0  0  0
    3.2835   -0.0193    4.2687 C   0  0  0  0  0  0  0  0  0  0  0  0
    4.1355   -0.5287    3.3443 N   0  0  0  0  0  0  0  0  0  0  0  0
    3.8829   -0.3277    2.0503 C   0  0  0  0  0  0  0  0  0  0  0  0
    4.7980   -0.8697    1.1478 C   0  0  0  0  0  0  0  0  0  0  0  0
    4.5482   -0.6601   -0.1974 C   0  0  0  0  0  0  0  0  0  0  0  0
    5.4075   -1.1649   -1.1540 C   0  0  0  0  0  0  0  0  0  0  0  0
    5.1566   -0.9544   -2.4996 C   0  0  0  0  0  0  0  0  0  0  0  0
    4.0354   -0.2311   -2.9177 C   0  0  0  0  0  0  0  0  0  0  0  0
    3.1648    0.2803   -1.9485 C   0  0  0  0  0  0  0  0  0  0  0  0
    3.4263    0.0634   -0.6094 C   0  0  0  0  0  0  0  0  0  0  0  0
    2.5376    0.5881    0.3056 C   0  0  0  0  0  0  0  0  0  0  0  0
    2.7782    0.3836    1.6461 C   0  0  0  0  0  0  0  0  0  0  0  0
   -1.3535    2.0471    1.1142 C   0  0  0  0  0  0  0  0  0  0  0  0
   -2.4574    1.6411    0.3985 C   0  0  0  0  0  0  0  0  0  0  0  0
   -5.3142   -2.6744   -2.1210 H   0  0  0  0  0  0  0  0  0  0  0  0
   -5.8552   -2.3209   -0.4601 H   0  0  0  0  0  0  0  0  0  0  0  0
   -3.2477   -1.8057   -1.8590 H   0  0  0  0  0  0  0  0  0  0  0  0
   -3.6325   -2.1177   -0.1534 H   0  0  0  0  0  0  0  0  0  0  0  0
   -5.4768    0.9806   -0.2702 H   0  0  0  0  0  0  0  0  0  0  0  0
   -4.3232    1.8159   -1.4407 H   0  0  0  0  0  0  0  0  0  0  0  0
   -6.2647    0.9890   -2.5747 H   0  0  0  0  0  0  0  0  0  0  0  0
   -4.8554    0.0576   -3.1291 H   0  0  0  0  0  0  0  0  0  0  0  0
   -1.6915   -1.6284    0.2214 H   0  0  0  0  0  0  0  0  0  0  0  0
    0.2213   -0.8597    1.4743 H   0  0  0  0  0  0  0  0  0  0  0  0
    0.7268    2.6473    2.6023 H   0  0  0  0  0  0  0  0  0  0  0  0
    1.4856    1.1040    4.6956 H   0  0  0  0  0  0  0  0  0  0  0  0
    3.4713   -0.1714    5.3270 H   0  0  0  0  0  0  0  0  0  0  0  0
    5.6489   -1.4200    1.5035 H   0  0  0  0  0  0  0  0  0  0  0  0
    6.2802   -1.7289   -0.8048 H   0  0  0  0  0  0  0  0  0  0  0  0
    5.8354   -1.3540   -3.2335 H   0  0  0  0  0  0  0  0  0  0  0  0
    3.8421   -0.0677   -3.9850 H   0  0  0  0  0  0  0  0  0  0  0  0
    2.3028    0.8370   -2.2844 H   0  0  0  0  0  0  0  0  0  0  0  0
    1.6949    1.1420   -0.0289 H   0  0  0  0  0  0  0  0  0  0  0  0
   -1.2355    3.1068    1.3834 H   0  0  0  0  0  0  0  0  0  0  0  0
   -3.1698    2.4050    0.1314 H   0  0  0  0  0  0  0  0  0  0  0  0
  1  2  1  0
  2  3  1  0
  3  4  1  0
  4  5  1  0
  5  6  1  0
  3  7  1  0
  7  8  2  0
  8  9  1  0
  9 10  2  0
 10 11  1  0
 11 12  1  0
 12 13  2  0
 13 14  1  0
 14 15  2  0
 15 16  1  0
 16 17  2  0
 17 18  1  0
 18 19  2  0
 19 20  1  0
 20 21  2  0
 21 22  1  0
 22 23  2  0
 23 24  1  0
 24 25  2  0
 10 26  1  0
 26 27  2  0
  6  1  1  0
 27  7  1  0
 25 12  1  0
 25 16  1  0
 23 18  1  0
  1 28  1  0
  1 29  1  0
  2 30  1  0
  2 31  1  0
  4 32  1  0
  4 33  1  0
  5 34  1  0
  5 35  1  0
  8 36  1  0
  9 37  1  0
 11 38  1  0
 13 39  1  0
 14 40  1  0
 17 41  1  0
 19 42  1  0
 20 43  1  0
 21 44  1  0
 22 45  1  0
 24 46  1  0
 26 47  1  0
 27 48  1  0
M  END
>  <Batch_No>  (74) 
0352-0621

>  <EC50_nM>  (74) 
251

>  <Set>  (74) 
Probe-like

>  <Molecular_Weight>  (74) 
355.43233

>  <ALogP>  (74) 
4.324

$$$$
MMV006457
     RDKit          3D

 37 39  0  0  0  0  0  0  0  0999 V2000
    6.7090   -0.6499    0.2684 C   0  0  0  0  0  0  0  0  0  0  0  0
    6.2092    0.7579    0.1419 C   0  0  0  0  0  0  0  0  0  0  0  0
    4.8367    0.9087    0.4350 O   0  0  0  0  0  0  0  0  0  0  0  0
    3.8748    0.2328   -0.2947 C   0  0  0  0  0  0  0  0  0  0  0  0
    4.3173   -0.5178   -1.2291 O   0  0  0  0  0  0  0  0  0  0  0  0
    2.4452    0.3611   -0.0239 C   0  0  0  0  0  0  0  0  0  0  0  0
    1.9234    1.1505    0.9636 C   0  0  0  0  0  0  0  0  0  0  0  0
    0.5530    1.2351    1.1774 C   0  0  0  0  0  0  0  0  0  0  0  0
   -0.3296    0.5191    0.3932 C   0  0  0  0  0  0  0  0  0  0  0  0
   -1.6783    0.5843    0.5819 N   0  0  0  0  0  0  0  0  0  0  0  0
   -2.5108   -0.1265   -0.2001 C   0  0  0  0  0  0  0  0  0  0  0  0
   -1.9718   -0.9170   -1.1902 C   0  0  0  0  0  0  0  0  0  0  0  0
   -0.6210   -1.0099   -1.4123 C   0  0  0  0  0  0  0  0  0  0  0  0
   -0.0859   -1.8047   -2.4072 O   0  0  0  0  0  0  0  0  0  0  0  0
    0.2161   -0.2709   -0.5969 C   0  0  0  0  0  0  0  0  0  0  0  0
    1.5740   -0.3600   -0.8151 C   0  0  0  0  0  0  0  0  0  0  0  0
   -3.9390   -0.0108    0.0557 C   0  0  0  0  0  0  0  0  0  0  0  0
   -4.3458    0.8164    1.0789 C   0  0  0  0  0  0  0  0  0  0  0  0
   -5.7053    0.9560    1.3576 C   0  0  0  0  0  0  0  0  0  0  0  0
   -6.6548    0.2734    0.6190 C   0  0  0  0  0  0  0  0  0  0  0  0
   -6.2542   -0.5691   -0.4220 C   0  0  0  0  0  0  0  0  0  0  0  0
   -4.9021   -0.6807   -0.6666 C   0  0  0  0  0  0  0  0  0  0  0  0
    6.7400   -1.1016   -0.7613 H   0  0  0  0  0  0  0  0  0  0  0  0
    7.7860   -0.6670    0.5858 H   0  0  0  0  0  0  0  0  0  0  0  0
    6.1405   -1.2980    0.9341 H   0  0  0  0  0  0  0  0  0  0  0  0
    6.4866    1.1818   -0.8484 H   0  0  0  0  0  0  0  0  0  0  0  0
    6.7763    1.3854    0.8823 H   0  0  0  0  0  0  0  0  0  0  0  0
    2.6291    1.7110    1.5762 H   0  0  0  0  0  0  0  0  0  0  0  0
    0.1789    1.8739    1.9723 H   0  0  0  0  0  0  0  0  0  0  0  0
   -2.6180   -1.4950   -1.8286 H   0  0  0  0  0  0  0  0  0  0  0  0
   -0.7220   -2.3767   -2.9505 H   0  0  0  0  0  0  0  0  0  0  0  0
    1.9774   -0.9955   -1.6085 H   0  0  0  0  0  0  0  0  0  0  0  0
   -3.6617    1.3845    1.7024 H   0  0  0  0  0  0  0  0  0  0  0  0
   -6.0554    1.5977    2.1542 H   0  0  0  0  0  0  0  0  0  0  0  0
   -7.7172    0.3581    0.8075 H   0  0  0  0  0  0  0  0  0  0  0  0
   -6.9896   -1.1007   -0.9976 H   0  0  0  0  0  0  0  0  0  0  0  0
   -4.6110   -1.3360   -1.4746 H   0  0  0  0  0  0  0  0  0  0  0  0
  1  2  1  0
  2  3  1  0
  3  4  1  0
  4  5  2  0
  4  6  1  0
  6  7  2  0
  7  8  1  0
  8  9  2  0
  9 10  1  0
 10 11  2  0
 11 12  1  0
 12 13  2  0
 13 14  1  0
 13 15  1  0
 15 16  2  0
 11 17  1  0
 17 18  2  0
 18 19  1  0
 19 20  2  0
 20 21  1  0
 21 22  2  0
 16  6  1  0
 15  9  1  0
 22 17  1  0
  1 23  1  0
  1 24  1  0
  1 25  1  0
  2 26  1  0
  2 27  1  0
  7 28  1  0
  8 29  1  0
 12 30  1  0
 14 31  1  0
 16 32  1  0
 18 33  1  0
 19 34  1  0
 20 35  1  0
 21 36  1  0
 22 37  1  0
M  END
>  <Batch_No>  (75) 
C200-6897

>  <EC50_nM>  (75) 
118

>  <Set>  (75) 
Probe-like

>  <Molecular_Weight>  (75) 
293.3166

>  <ALogP>  (75) 
3.925

$$$$
MMV396693
     RDKit          3D

 35 37  0  0  0  0  0  0  0  0999 V2000
   -1.5410   -0.8922   -0.6613 N   0  0  0  0  0  0  0  0  0  0  0  0
   -1.4748   -2.0931   -1.4350 C   0  0  0  0  0  0  0  0  0  0  0  0
   -2.7613   -0.4374   -0.2821 C   0  0  0  0  0  0  0  0  0  0  0  0
   -2.9042    0.7302    0.4644 C   0  0  0  0  0  0  0  0  0  0  0  0
   -4.1512    1.1977    0.8575 C   0  0  0  0  0  0  0  0  0  0  0  0
   -5.3012    0.5225    0.5238 C   0  0  0  0  0  0  0  0  0  0  0  0
   -5.1824   -0.6305   -0.2110 C   0  0  0  0  0  0  0  0  0  0  0  0
   -3.9321   -1.0925   -0.6009 C   0  0  0  0  0  0  0  0  0  0  0  0
   -1.8486    1.4628    0.8460 N   0  0  0  0  0  0  0  0  0  0  0  0
   -0.6311    1.0018    0.4638 C   0  0  0  0  0  0  0  0  0  0  0  0
    0.4505    1.7560    0.8609 C   0  0  0  0  0  0  0  0  0  0  0  0
    1.7138    1.3168    0.4930 C   0  0  0  0  0  0  0  0  0  0  0  0
    1.9256    0.1723   -0.2424 C   0  0  0  0  0  0  0  0  0  0  0  0
    3.2038   -0.3058   -0.6168 N   0  0  0  0  0  0  0  0  0  0  0  0
    4.4597    0.2730   -0.2572 C   0  0  0  0  0  0  0  0  0  0  0  0
    4.8451    0.1336    1.1861 C   0  0  0  0  0  0  0  0  0  0  0  0
    6.0920    0.7455    1.4022 O   0  0  0  0  0  0  0  0  0  0  0  0
    0.7831   -0.5374   -0.6076 C   0  0  0  0  0  0  0  0  0  0  0  0
   -0.4822   -0.1581   -0.2782 C   0  0  0  0  0  0  0  0  0  0  0  0
   -0.5582   -2.2969   -1.9788 H   0  0  0  0  0  0  0  0  0  0  0  0
   -2.2599   -2.0008   -2.2478 H   0  0  0  0  0  0  0  0  0  0  0  0
   -1.8207   -2.9813   -0.8412 H   0  0  0  0  0  0  0  0  0  0  0  0
   -4.2761    2.1070    1.4395 H   0  0  0  0  0  0  0  0  0  0  0  0
   -6.2841    0.8587    0.8132 H   0  0  0  0  0  0  0  0  0  0  0  0
   -6.0877   -1.1915   -0.4920 H   0  0  0  0  0  0  0  0  0  0  0  0
   -3.9332   -2.0093   -1.1724 H   0  0  0  0  0  0  0  0  0  0  0  0
    0.3308    2.6774    1.4500 H   0  0  0  0  0  0  0  0  0  0  0  0
    2.5364    1.9273    0.8032 H   0  0  0  0  0  0  0  0  0  0  0  0
    3.2466   -1.1784   -1.2239 H   0  0  0  0  0  0  0  0  0  0  0  0
    5.2937   -0.1147   -0.8735 H   0  0  0  0  0  0  0  0  0  0  0  0
    4.3776    1.3703   -0.4486 H   0  0  0  0  0  0  0  0  0  0  0  0
    4.9457   -0.9561    1.4307 H   0  0  0  0  0  0  0  0  0  0  0  0
    4.0726    0.5274    1.8316 H   0  0  0  0  0  0  0  0  0  0  0  0
    6.2141    1.5177    0.7758 H   0  0  0  0  0  0  0  0  0  0  0  0
    0.9392   -1.4222   -1.1710 H   0  0  0  0  0  0  0  0  0  0  0  0
  1  2  1  0
  1  3  2  0
  3  4  1  0
  4  5  1  0
  5  6  2  0
  6  7  1  0
  7  8  2  0
  4  9  2  0
  9 10  1  0
 10 11  1  0
 11 12  2  0
 12 13  1  0
 13 14  1  0
 14 15  1  0
 15 16  1  0
 16 17  1  0
 13 18  2  0
 10 19  2  0
 19  1  1  0
  8  3  1  0
 19 18  1  0
  2 20  1  0
  2 21  1  0
  2 22  1  0
  5 23  1  0
  6 24  1  0
  7 25  1  0
  8 26  1  0
 11 27  1  0
 12 28  1  0
 14 29  1  0
 15 30  1  0
 15 31  1  0
 16 32  1  0
 16 33  1  0
 17 34  1  0
 18 35  1  0
M  CHG  1   1   1
M  END
>  <Batch_No>  (76) 
STL036739

>  <EC50_nM>  (76) 
296

>  <Set>  (76) 
Probe-like

>  <Molecular_Weight>  (76) 
254.30704

>  <ALogP>  (76) 
2.809

$$$$
MMV011567
     RDKit          3D

 43 45  0  0  0  0  0  0  0  0999 V2000
    6.2881   -2.7471   -0.9799 C   0  0  0  0  0  0  0  0  0  0  0  0
    5.6395   -1.5843   -1.5117 O   0  0  0  0  0  0  0  0  0  0  0  0
    4.6563   -0.9174   -0.8113 C   0  0  0  0  0  0  0  0  0  0  0  0
    4.2042   -1.2855    0.4341 C   0  0  0  0  0  0  0  0  0  0  0  0
    3.2024   -0.5752    1.1052 C   0  0  0  0  0  0  0  0  0  0  0  0
    2.6403    0.5344    0.5081 C   0  0  0  0  0  0  0  0  0  0  0  0
    3.1008    0.8950   -0.7410 C   0  0  0  0  0  0  0  0  0  0  0  0
    4.0794    0.2007   -1.3960 C   0  0  0  0  0  0  0  0  0  0  0  0
    4.6081    0.7375   -2.9988 Cl  0  0  0  0  0  0  0  0  0  0  0  0
    1.5945    1.2640    1.2166 C   0  0  0  0  0  0  0  0  0  0  0  0
    1.2661    0.8033    2.3520 O   0  0  0  0  0  0  0  0  0  0  0  0
    0.9694    2.4110    0.6996 N   0  0  0  0  0  0  0  0  0  0  0  0
   -0.0532    3.1441    1.3626 C   0  0  0  0  0  0  0  0  0  0  0  0
    0.0755    4.1823    2.2080 N   0  0  0  0  0  0  0  0  0  0  0  0
   -1.0953    4.5681    2.5936 O   0  0  0  0  0  0  0  0  0  0  0  0
   -1.9930    3.8242    2.0351 N   0  0  0  0  0  0  0  0  0  0  0  0
   -1.4287    2.9005    1.2432 C   0  0  0  0  0  0  0  0  0  0  0  0
   -2.0304    1.8593    0.4275 C   0  0  0  0  0  0  0  0  0  0  0  0
   -1.5923    1.6502   -0.8605 C   0  0  0  0  0  0  0  0  0  0  0  0
   -2.1925    0.6521   -1.5788 C   0  0  0  0  0  0  0  0  0  0  0  0
   -3.2206   -0.1497   -1.0543 C   0  0  0  0  0  0  0  0  0  0  0  0
   -3.7676   -1.0765   -1.7388 O   0  0  0  0  0  0  0  0  0  0  0  0
   -4.2394   -1.9891   -2.5448 C   0  0  0  0  0  0  0  0  0  0  0  0
   -3.6052    0.1311    0.2639 C   0  0  0  0  0  0  0  0  0  0  0  0
   -4.6196   -0.6552    0.7917 O   0  0  0  0  0  0  0  0  0  0  0  0
   -5.0959   -0.4742    2.1075 C   0  0  0  0  0  0  0  0  0  0  0  0
   -3.0399    1.1106    1.0165 C   0  0  0  0  0  0  0  0  0  0  0  0
    6.7355   -3.3492   -1.7967 H   0  0  0  0  0  0  0  0  0  0  0  0
    7.0389   -2.4338   -0.2172 H   0  0  0  0  0  0  0  0  0  0  0  0
    5.5312   -3.3878   -0.4832 H   0  0  0  0  0  0  0  0  0  0  0  0
    4.6606   -2.1594    0.8817 H   0  0  0  0  0  0  0  0  0  0  0  0
    2.8991   -0.9285    2.0882 H   0  0  0  0  0  0  0  0  0  0  0  0
    2.6882    1.7571   -1.2443 H   0  0  0  0  0  0  0  0  0  0  0  0
    1.2501    2.7942   -0.2509 H   0  0  0  0  0  0  0  0  0  0  0  0
   -0.8112    2.2232   -1.3305 H   0  0  0  0  0  0  0  0  0  0  0  0
   -1.8841    0.4388   -2.6133 H   0  0  0  0  0  0  0  0  0  0  0  0
   -5.0302   -2.6713   -2.1172 H   0  0  0  0  0  0  0  0  0  0  0  0
   -4.7746   -1.5607   -3.4526 H   0  0  0  0  0  0  0  0  0  0  0  0
   -3.4720   -2.6805   -3.0073 H   0  0  0  0  0  0  0  0  0  0  0  0
   -5.8492   -1.2773    2.3182 H   0  0  0  0  0  0  0  0  0  0  0  0
   -5.6604    0.4955    2.1968 H   0  0  0  0  0  0  0  0  0  0  0  0
   -4.2908   -0.5109    2.8494 H   0  0  0  0  0  0  0  0  0  0  0  0
   -3.3823    1.2780    2.0298 H   0  0  0  0  0  0  0  0  0  0  0  0
  1  2  1  0
  2  3  1  0
  3  4  2  0
  4  5  1  0
  5  6  2  0
  6  7  1  0
  7  8  2  0
  8  9  1  0
  6 10  1  0
 10 11  2  0
 10 12  1  0
 12 13  1  0
 13 14  2  0
 14 15  1  0
 15 16  1  0
 16 17  2  0
 17 18  1  0
 18 19  2  0
 19 20  1  0
 20 21  2  0
 21 22  1  0
 22 23  1  0
 21 24  1  0
 24 25  1  0
 25 26  1  0
 24 27  2  0
  8  3  1  0
 17 13  1  0
 27 18  1  0
  1 28  1  0
  1 29  1  0
  1 30  1  0
  4 31  1  0
  5 32  1  0
  7 33  1  0
 12 34  1  0
 19 35  1  0
 20 36  1  0
 23 37  1  0
 23 38  1  0
 23 39  1  0
 26 40  1  0
 26 41  1  0
 26 42  1  0
 27 43  1  0
M  END
>  <Batch_No>  (77) 
STK596265

>  <EC50_nM>  (77) 
516

>  <Set>  (77) 
Drug-like

>  <Molecular_Weight>  (77) 
389.78973

>  <ALogP>  (77) 
3.52

$$$$
MMV007907
     RDKit          3D

 32 34  0  0  0  0  0  0  0  0999 V2000
    6.0364   -0.6641   -1.2080 C   0  0  0  0  0  0  0  0  0  0  0  0
    4.7186   -0.2937   -0.6068 C   0  0  0  0  0  0  0  0  0  0  0  0
    4.5630    0.9949   -0.1401 C   0  0  0  0  0  0  0  0  0  0  0  0
    3.3537    1.3569    0.3967 C   0  0  0  0  0  0  0  0  0  0  0  0
    2.2694    0.4687    0.4910 C   0  0  0  0  0  0  0  0  0  0  0  0
    1.0985    0.9984    1.0580 N   0  0  0  0  0  0  0  0  0  0  0  0
   -0.2127    0.8128    0.5848 C   0  0  0  0  0  0  0  0  0  0  0  0
   -1.3266    0.3773    0.6509 N   0  0  0  0  0  0  0  0  0  0  0  0
   -2.3410    0.4653   -0.1260 C   0  0  0  0  0  0  0  0  0  0  0  0
   -2.0223    1.2747   -1.3327 C   0  0  0  0  0  0  0  0  0  0  0  0
   -0.3500    1.7355   -1.0990 S   0  0  0  0  0  0  0  0  0  0  0  0
   -3.6713   -0.0966    0.0820 C   0  0  0  0  0  0  0  0  0  0  0  0
   -4.6794    0.1188   -0.8246 C   0  0  0  0  0  0  0  0  0  0  0  0
   -5.9636   -0.3757   -0.6832 C   0  0  0  0  0  0  0  0  0  0  0  0
   -6.2272   -1.1303    0.4512 C   0  0  0  0  0  0  0  0  0  0  0  0
   -5.2141   -1.3418    1.3564 C   0  0  0  0  0  0  0  0  0  0  0  0
   -3.9609   -0.8377    1.1800 N   0  0  0  0  0  0  0  0  0  0  0  0
    2.4375   -0.8053    0.0278 C   0  0  0  0  0  0  0  0  0  0  0  0
    3.6738   -1.1766   -0.5219 C   0  0  0  0  0  0  0  0  0  0  0  0
    6.4895   -1.5419   -0.6869 H   0  0  0  0  0  0  0  0  0  0  0  0
    6.7503    0.1621   -1.1713 H   0  0  0  0  0  0  0  0  0  0  0  0
    5.8539   -1.0234   -2.2581 H   0  0  0  0  0  0  0  0  0  0  0  0
    5.4047    1.6964   -0.2061 H   0  0  0  0  0  0  0  0  0  0  0  0
    3.2591    2.3849    0.7675 H   0  0  0  0  0  0  0  0  0  0  0  0
    1.2087    1.5928    1.9292 H   0  0  0  0  0  0  0  0  0  0  0  0
   -2.7221    1.4715   -2.1137 H   0  0  0  0  0  0  0  0  0  0  0  0
   -4.5046    0.7085   -1.7192 H   0  0  0  0  0  0  0  0  0  0  0  0
   -6.7215   -0.1777   -1.4313 H   0  0  0  0  0  0  0  0  0  0  0  0
   -7.2207   -1.5225    0.5765 H   0  0  0  0  0  0  0  0  0  0  0  0
   -5.4216   -1.9293    2.2467 H   0  0  0  0  0  0  0  0  0  0  0  0
    1.6090   -1.5067    0.0975 H   0  0  0  0  0  0  0  0  0  0  0  0
    3.8333   -2.1962   -0.9026 H   0  0  0  0  0  0  0  0  0  0  0  0
  1  2  1  0
  2  3  2  0
  3  4  1  0
  4  5  2  0
  5  6  1  0
  6  7  1  0
  7  8  2  0
  8  9  1  0
  9 10  2  0
 10 11  1  0
  9 12  1  0
 12 13  2  0
 13 14  1  0
 14 15  2  0
 15 16  1  0
 16 17  2  0
  5 18  1  0
 18 19  2  0
 19  2  1  0
 11  7  1  0
 17 12  1  0
  1 20  1  0
  1 21  1  0
  1 22  1  0
  3 23  1  0
  4 24  1  0
  6 25  1  0
 10 26  1  0
 13 27  1  0
 14 28  1  0
 15 29  1  0
 16 30  1  0
 18 31  1  0
 19 32  1  0
M  END
>  <Batch_No>  (78) 
STK070268

>  <EC50_nM>  (78) 
350

>  <Set>  (78) 
Drug-like

>  <Molecular_Weight>  (78) 
267.34882

>  <ALogP>  (78) 
3.451

$$$$
MMV665805
     RDKit          3D

 48 50  0  0  0  0  0  0  0  0999 V2000
   -2.8099    4.0645    0.1975 C   0  0  0  0  0  0  0  0  0  0  0  0
   -2.8996    3.0965    1.3485 C   0  0  0  0  0  0  0  0  0  0  0  0
   -3.2121    1.7877    0.9728 O   0  0  0  0  0  0  0  0  0  0  0  0
   -2.4911    0.9733    0.1411 C   0  0  0  0  0  0  0  0  0  0  0  0
   -1.3143    1.3979   -0.4353 C   0  0  0  0  0  0  0  0  0  0  0  0
   -0.5642    0.5964   -1.2806 C   0  0  0  0  0  0  0  0  0  0  0  0
   -1.0427   -0.6735   -1.5351 C   0  0  0  0  0  0  0  0  0  0  0  0
   -2.2284   -1.0953   -0.9514 C   0  0  0  0  0  0  0  0  0  0  0  0
   -2.9789   -0.3090   -0.1131 C   0  0  0  0  0  0  0  0  0  0  0  0
   -4.1574   -0.6796    0.4865 O   0  0  0  0  0  0  0  0  0  0  0  0
   -4.7147   -1.9444    0.2625 C   0  0  0  0  0  0  0  0  0  0  0  0
   -5.0371   -2.0969   -1.1937 C   0  0  0  0  0  0  0  0  0  0  0  0
   -0.3015   -1.5735   -2.4178 C   0  0  0  0  0  0  0  0  0  0  0  0
   -0.7679   -2.3558   -3.4072 N   0  0  0  0  0  0  0  0  0  0  0  0
    0.2073   -3.0114   -3.9625 O   0  0  0  0  0  0  0  0  0  0  0  0
    1.2994   -2.6826   -3.3670 N   0  0  0  0  0  0  0  0  0  0  0  0
    1.0519   -1.7826   -2.3860 C   0  0  0  0  0  0  0  0  0  0  0  0
    1.9846   -1.1832   -1.5126 N   0  0  0  0  0  0  0  0  0  0  0  0
    2.3649   -1.7081   -0.2563 C   0  0  0  0  0  0  0  0  0  0  0  0
    1.8449   -2.7904    0.1316 O   0  0  0  0  0  0  0  0  0  0  0  0
    3.3272   -1.0710    0.6233 C   0  0  0  0  0  0  0  0  0  0  0  0
    3.6235   -1.6748    1.8283 C   0  0  0  0  0  0  0  0  0  0  0  0
    4.5286   -1.1163    2.7030 C   0  0  0  0  0  0  0  0  0  0  0  0
    5.1500    0.0611    2.3762 C   0  0  0  0  0  0  0  0  0  0  0  0
    4.8731    0.6767    1.1899 C   0  0  0  0  0  0  0  0  0  0  0  0
    5.5296    1.9595    0.7986 C   0  0  0  0  0  0  0  0  0  0  0  0
    3.9646    0.1100    0.3191 C   0  0  0  0  0  0  0  0  0  0  0  0
   -1.8195    4.5635    0.1636 H   0  0  0  0  0  0  0  0  0  0  0  0
   -2.9648    3.4932   -0.7555 H   0  0  0  0  0  0  0  0  0  0  0  0
   -3.6123    4.8240    0.3132 H   0  0  0  0  0  0  0  0  0  0  0  0
   -1.9352    3.1406    1.8978 H   0  0  0  0  0  0  0  0  0  0  0  0
   -3.7044    3.4318    2.0390 H   0  0  0  0  0  0  0  0  0  0  0  0
   -0.8975    2.3955   -0.2595 H   0  0  0  0  0  0  0  0  0  0  0  0
    0.3572    0.9561   -1.7200 H   0  0  0  0  0  0  0  0  0  0  0  0
   -2.5393   -2.0973   -1.1846 H   0  0  0  0  0  0  0  0  0  0  0  0
   -3.9520   -2.6909    0.5903 H   0  0  0  0  0  0  0  0  0  0  0  0
   -5.6142   -2.0059    0.9131 H   0  0  0  0  0  0  0  0  0  0  0  0
   -6.1691   -2.1506   -1.2612 H   0  0  0  0  0  0  0  0  0  0  0  0
   -4.6587   -3.0777   -1.5746 H   0  0  0  0  0  0  0  0  0  0  0  0
   -4.6668   -1.2223   -1.7391 H   0  0  0  0  0  0  0  0  0  0  0  0
    2.4154   -0.2724   -1.8513 H   0  0  0  0  0  0  0  0  0  0  0  0
    3.1619   -2.6001    2.1305 H   0  0  0  0  0  0  0  0  0  0  0  0
    4.7481   -1.6155    3.6563 H   0  0  0  0  0  0  0  0  0  0  0  0
    5.8705    0.5250    3.0496 H   0  0  0  0  0  0  0  0  0  0  0  0
    6.5244    1.7200    0.3766 H   0  0  0  0  0  0  0  0  0  0  0  0
    4.8766    2.4839    0.0646 H   0  0  0  0  0  0  0  0  0  0  0  0
    5.5853    2.6142    1.6969 H   0  0  0  0  0  0  0  0  0  0  0  0
    3.7646    0.6096   -0.6018 H   0  0  0  0  0  0  0  0  0  0  0  0
  1  2  1  0
  2  3  1  0
  3  4  1  0
  4  5  2  0
  5  6  1  0
  6  7  2  0
  7  8  1  0
  8  9  2  0
  9 10  1  0
 10 11  1  0
 11 12  1  0
  7 13  1  0
 13 14  2  0
 14 15  1  0
 15 16  1  0
 16 17  2  0
 17 18  1  0
 18 19  1  0
 19 20  2  0
 19 21  1  0
 21 22  2  0
 22 23  1  0
 23 24  2  0
 24 25  1  0
 25 26  1  0
 25 27  2  0
  9  4  1  0
 17 13  1  0
 27 21  1  0
  1 28  1  0
  1 29  1  0
  1 30  1  0
  2 31  1  0
  2 32  1  0
  5 33  1  0
  6 34  1  0
  8 35  1  0
 11 36  1  0
 11 37  1  0
 12 38  1  0
 12 39  1  0
 12 40  1  0
 18 41  1  0
 22 42  1  0
 23 43  1  0
 24 44  1  0
 26 45  1  0
 26 46  1  0
 26 47  1  0
 27 48  1  0
M  END
>  <Batch_No>  (79) 
OSSK_551212

>  <EC50_nM>  (79) 
117

>  <Set>  (79) 
Drug-like

>  <Molecular_Weight>  (79) 
367.39843

>  <ALogP>  (79) 
4.056

$$$$
MMV666021
     RDKit          3D

 33 36  0  0  0  0  0  0  0  0999 V2000
   -6.3914   -0.2783   -0.0497 C   0  0  0  0  0  0  0  0  0  0  0  0
   -4.9012   -0.3341   -0.0331 C   0  0  0  0  0  0  0  0  0  0  0  0
   -4.2302    0.8711   -0.0745 C   0  0  0  0  0  0  0  0  0  0  0  0
   -2.8503    0.8560   -0.0607 C   0  0  0  0  0  0  0  0  0  0  0  0
   -2.1198   -0.3074   -0.0075 C   0  0  0  0  0  0  0  0  0  0  0  0
   -2.8138   -1.4904    0.0329 C   0  0  0  0  0  0  0  0  0  0  0  0
   -4.2022   -1.5254    0.0209 C   0  0  0  0  0  0  0  0  0  0  0  0
   -0.6651   -0.3528    0.0083 C   0  0  0  0  0  0  0  0  0  0  0  0
    0.1329    0.7709   -0.0287 C   0  0  0  0  0  0  0  0  0  0  0  0
    1.5170    0.6822   -0.0119 C   0  0  0  0  0  0  0  0  0  0  0  0
    2.5556    1.7320   -0.0436 C   0  0  0  0  0  0  0  0  0  0  0  0
    2.3623    2.9780   -0.0950 O   0  0  0  0  0  0  0  0  0  0  0  0
    3.8149    0.9983   -0.0024 C   0  0  0  0  0  0  0  0  0  0  0  0
    5.1202    1.4932   -0.0095 C   0  0  0  0  0  0  0  0  0  0  0  0
    6.1709    0.5832    0.0367 C   0  0  0  0  0  0  0  0  0  0  0  0
    5.9186   -0.7881    0.0888 C   0  0  0  0  0  0  0  0  0  0  0  0
    4.6211   -1.2579    0.0950 C   0  0  0  0  0  0  0  0  0  0  0  0
    3.5673   -0.3653    0.0494 C   0  0  0  0  0  0  0  0  0  0  0  0
    2.1213   -0.5566    0.0431 C   0  0  0  0  0  0  0  0  0  0  0  0
    1.3092   -1.6295    0.0780 N   0  0  0  0  0  0  0  0  0  0  0  0
    0.0013   -1.5423    0.0620 N   0  0  0  0  0  0  0  0  0  0  0  0
   -6.7041   -0.1507   -1.1233 H   0  0  0  0  0  0  0  0  0  0  0  0
   -6.8547   -1.2015    0.3702 H   0  0  0  0  0  0  0  0  0  0  0  0
   -6.7729    0.5855    0.5391 H   0  0  0  0  0  0  0  0  0  0  0  0
   -4.7644    1.7876   -0.1161 H   0  0  0  0  0  0  0  0  0  0  0  0
   -2.3407    1.8040   -0.0934 H   0  0  0  0  0  0  0  0  0  0  0  0
   -2.2609   -2.4350    0.0757 H   0  0  0  0  0  0  0  0  0  0  0  0
   -4.7633   -2.4526    0.0524 H   0  0  0  0  0  0  0  0  0  0  0  0
   -0.3095    1.7438   -0.0716 H   0  0  0  0  0  0  0  0  0  0  0  0
    5.3243    2.5611   -0.0500 H   0  0  0  0  0  0  0  0  0  0  0  0
    7.1782    0.9638    0.0313 H   0  0  0  0  0  0  0  0  0  0  0  0
    6.7870   -1.4202    0.1222 H   0  0  0  0  0  0  0  0  0  0  0  0
    4.4423   -2.3229    0.1356 H   0  0  0  0  0  0  0  0  0  0  0  0
  1  2  1  0
  2  3  2  0
  3  4  1  0
  4  5  2  0
  5  6  1  0
  6  7  2  0
  5  8  1  0
  8  9  2  0
  9 10  1  0
 10 11  1  0
 11 12  2  0
 11 13  1  0
 13 14  2  0
 14 15  1  0
 15 16  2  0
 16 17  1  0
 17 18  2  0
 18 19  1  0
 19 20  1  0
 20 21  2  0
  7  2  1  0
 21  8  1  0
 19 10  2  0
 18 13  1  0
  1 22  1  0
  1 23  1  0
  1 24  1  0
  3 25  1  0
  4 26  1  0
  6 27  1  0
  7 28  1  0
  9 29  1  0
 14 30  1  0
 15 31  1  0
 16 32  1  0
 17 33  1  0
M  END
>  <Batch_No>  (80) 
5215436

>  <EC50_nM>  (80) 
94.4

>  <Set>  (80) 
Probe-like

>  <Molecular_Weight>  (80) 
272.30068

>  <ALogP>  (80) 
4.166

$$$$
MMV665800
     RDKit          3D

 46 47  0  0  0  0  0  0  0  0999 V2000
   -6.4001   -2.0731   -0.5852 C   0  0  0  0  0  0  0  0  0  0  0  0
   -5.0575   -2.0353    0.1119 C   0  0  0  0  0  0  0  0  0  0  0  0
   -4.2594   -0.9769   -0.4401 O   0  0  0  0  0  0  0  0  0  0  0  0
   -2.9837   -0.8515    0.1386 C   0  0  0  0  0  0  0  0  0  0  0  0
   -2.5650   -1.6918    1.1508 C   0  0  0  0  0  0  0  0  0  0  0  0
   -1.3131   -1.5864    1.7353 C   0  0  0  0  0  0  0  0  0  0  0  0
   -0.8325   -2.6812    3.0188 Cl  0  0  0  0  0  0  0  0  0  0  0  0
   -0.4562   -0.5922    1.2753 C   0  0  0  0  0  0  0  0  0  0  0  0
   -0.8815    0.2438    0.2634 C   0  0  0  0  0  0  0  0  0  0  0  0
   -2.1277    0.1444   -0.3236 C   0  0  0  0  0  0  0  0  0  0  0  0
   -2.5834    0.9552   -1.3286 O   0  0  0  0  0  0  0  0  0  0  0  0
   -1.8612    2.0033   -1.9125 C   0  0  0  0  0  0  0  0  0  0  0  0
   -1.4686    3.0670   -0.9207 C   0  0  0  0  0  0  0  0  0  0  0  0
    0.8686   -0.5024    1.9140 C   0  0  0  0  0  0  0  0  0  0  0  0
    0.7014    0.4570    3.0975 C   0  0  0  0  0  0  0  0  0  0  0  0
    1.8896    0.0839    1.0656 N   0  0  0  0  0  0  0  0  0  0  0  0
    3.1108   -0.6046    0.8171 C   0  0  0  0  0  0  0  0  0  0  0  0
    3.2237   -1.7405    1.3855 O   0  0  0  0  0  0  0  0  0  0  0  0
    4.1480   -0.0474   -0.0235 C   0  0  0  0  0  0  0  0  0  0  0  0
    4.0600    1.1770   -0.6534 C   0  0  0  0  0  0  0  0  0  0  0  0
    5.1206    1.5852   -1.4240 C   0  0  0  0  0  0  0  0  0  0  0  0
    6.2669    0.8442   -1.6049 C   0  0  0  0  0  0  0  0  0  0  0  0
    6.3562   -0.3819   -0.9748 C   0  0  0  0  0  0  0  0  0  0  0  0
    5.2974   -0.7936   -0.2031 C   0  0  0  0  0  0  0  0  0  0  0  0
   -7.1453   -1.4296   -0.0425 H   0  0  0  0  0  0  0  0  0  0  0  0
   -6.3095   -1.7453   -1.6552 H   0  0  0  0  0  0  0  0  0  0  0  0
   -6.7576   -3.1218   -0.5864 H   0  0  0  0  0  0  0  0  0  0  0  0
   -4.5722   -3.0103   -0.0437 H   0  0  0  0  0  0  0  0  0  0  0  0
   -5.2557   -1.8590    1.1804 H   0  0  0  0  0  0  0  0  0  0  0  0
   -3.2140   -2.4723    1.5251 H   0  0  0  0  0  0  0  0  0  0  0  0
   -0.2123    1.0071   -0.0838 H   0  0  0  0  0  0  0  0  0  0  0  0
   -0.9477    1.6885   -2.4401 H   0  0  0  0  0  0  0  0  0  0  0  0
   -2.5223    2.4839   -2.6845 H   0  0  0  0  0  0  0  0  0  0  0  0
   -1.8111    2.7869    0.1047 H   0  0  0  0  0  0  0  0  0  0  0  0
   -0.3794    3.2685   -0.8900 H   0  0  0  0  0  0  0  0  0  0  0  0
   -1.9647    4.0505   -1.1524 H   0  0  0  0  0  0  0  0  0  0  0  0
    1.1873   -1.5015    2.3013 H   0  0  0  0  0  0  0  0  0  0  0  0
   -0.3404    0.4855    3.4550 H   0  0  0  0  0  0  0  0  0  0  0  0
    0.9639    1.4969    2.7947 H   0  0  0  0  0  0  0  0  0  0  0  0
    1.3454    0.0943    3.9065 H   0  0  0  0  0  0  0  0  0  0  0  0
    1.6942    1.0101    0.6554 H   0  0  0  0  0  0  0  0  0  0  0  0
    3.1745    1.7699   -0.5250 H   0  0  0  0  0  0  0  0  0  0  0  0
    5.0768    2.5442   -1.9303 H   0  0  0  0  0  0  0  0  0  0  0  0
    7.0680    1.2153   -2.2216 H   0  0  0  0  0  0  0  0  0  0  0  0
    7.2623   -0.9912   -1.1048 H   0  0  0  0  0  0  0  0  0  0  0  0
    5.4063   -1.7727    0.2807 H   0  0  0  0  0  0  0  0  0  0  0  0
  1  2  1  0
  2  3  1  0
  3  4  1  0
  4  5  2  0
  5  6  1  0
  6  7  1  0
  6  8  2  0
  8  9  1  0
  9 10  2  0
 10 11  1  0
 11 12  1  0
 12 13  1  0
  8 14  1  0
 14 15  1  0
 14 16  1  0
 16 17  1  0
 17 18  2  0
 17 19  1  0
 19 20  2  0
 20 21  1  0
 21 22  2  0
 22 23  1  0
 23 24  2  0
 10  4  1  0
 24 19  1  0
  1 25  1  0
  1 26  1  0
  1 27  1  0
  2 28  1  0
  2 29  1  0
  5 30  1  0
  9 31  1  0
 12 32  1  0
 12 33  1  0
 13 34  1  0
 13 35  1  0
 13 36  1  0
 14 37  1  0
 15 38  1  0
 15 39  1  0
 15 40  1  0
 16 41  1  0
 20 42  1  0
 21 43  1  0
 22 44  1  0
 23 45  1  0
 24 46  1  0
M  END
>  <Batch_No>  (81) 
AN-153/41789037

>  <EC50_nM>  (81) 
1370

>  <Set>  (81) 
Drug-like

>  <Molecular_Weight>  (81) 
347.83588

>  <ALogP>  (81) 
4.328

$$$$
MMV000634
     RDKit          3D

 59 63  0  0  0  0  0  0  0  0999 V2000
   -6.4521    1.6056    1.0347 C   0  0  0  0  0  0  0  0  0  0  0  0
   -6.0662    0.3564    0.2853 C   0  0  0  0  0  0  0  0  0  0  0  0
   -6.8956   -0.8308    0.7423 C   0  0  0  0  0  0  0  0  0  0  0  0
   -6.4457   -2.0972    0.0461 C   0  0  0  0  0  0  0  0  0  0  0  0
   -5.0012   -2.3081    0.4209 C   0  0  0  0  0  0  0  0  0  0  0  0
   -4.4328   -1.1310    1.1729 C   0  0  0  0  0  0  0  0  0  0  0  0
   -4.6368    0.1421    0.4703 N   0  0  0  0  0  0  0  0  0  0  0  0
   -3.9388    0.1151   -0.7998 C   0  0  0  0  0  0  0  0  0  0  0  0
   -3.9670    1.4790   -1.4188 C   0  0  0  0  0  0  0  0  0  0  0  0
   -3.2520    2.4669   -0.4975 C   0  0  0  0  0  0  0  0  0  0  0  0
   -1.9029    2.0378   -0.3135 N   0  0  0  0  0  0  0  0  0  0  0  0
   -0.9325    1.8733   -1.3191 C   0  0  0  0  0  0  0  0  0  0  0  0
   -1.2857    2.1340   -2.5199 O   0  0  0  0  0  0  0  0  0  0  0  0
    0.4122    1.4337   -1.0641 C   0  0  0  0  0  0  0  0  0  0  0  0
    0.9399    1.1580    0.1765 C   0  0  0  0  0  0  0  0  0  0  0  0
    2.2288    0.7334    0.3885 C   0  0  0  0  0  0  0  0  0  0  0  0
    3.1261    0.5467   -0.6978 C   0  0  0  0  0  0  0  0  0  0  0  0
    2.5738    0.8277   -1.9103 C   0  0  0  0  0  0  0  0  0  0  0  0
    1.2904    1.2518   -2.1358 C   0  0  0  0  0  0  0  0  0  0  0  0
    3.8523    0.5279   -3.0968 S   0  0  0  0  0  0  0  0  0  0  0  0
    5.0508    0.0341   -1.7872 C   0  0  0  0  0  0  0  0  0  0  0  0
    6.3154   -0.3791   -1.6272 N   0  0  0  0  0  0  0  0  0  0  0  0
    6.5012   -0.5555   -0.2836 C   0  0  0  0  0  0  0  0  0  0  0  0
    5.3116   -0.2308    0.2974 C   0  0  0  0  0  0  0  0  0  0  0  0
    4.3817    0.1458   -0.6504 N   0  0  0  0  0  0  0  0  0  0  0  0
    7.7518   -1.0013    0.3029 C   0  0  0  0  0  0  0  0  0  0  0  0
    8.8357   -1.2742   -0.4893 C   0  0  0  0  0  0  0  0  0  0  0  0
   10.0323   -1.6992    0.0576 C   0  0  0  0  0  0  0  0  0  0  0  0
   10.1350   -1.8497    1.4142 C   0  0  0  0  0  0  0  0  0  0  0  0
   11.2926   -2.2643    1.9841 F   0  0  0  0  0  0  0  0  0  0  0  0
    9.0356   -1.5704    2.1892 C   0  0  0  0  0  0  0  0  0  0  0  0
    7.8254   -1.1448    1.6840 C   0  0  0  0  0  0  0  0  0  0  0  0
   -5.7777    1.6483    1.9395 H   0  0  0  0  0  0  0  0  0  0  0  0
   -6.2676    2.5076    0.4372 H   0  0  0  0  0  0  0  0  0  0  0  0
   -7.5055    1.5431    1.3867 H   0  0  0  0  0  0  0  0  0  0  0  0
   -6.2424    0.5043   -0.7929 H   0  0  0  0  0  0  0  0  0  0  0  0
   -7.9340   -0.6369    0.4072 H   0  0  0  0  0  0  0  0  0  0  0  0
   -6.8827   -0.9133    1.8266 H   0  0  0  0  0  0  0  0  0  0  0  0
   -7.0331   -2.9291    0.4356 H   0  0  0  0  0  0  0  0  0  0  0  0
   -6.5235   -1.9478   -1.0352 H   0  0  0  0  0  0  0  0  0  0  0  0
   -4.9195   -3.1762    1.1041 H   0  0  0  0  0  0  0  0  0  0  0  0
   -4.4298   -2.5505   -0.4855 H   0  0  0  0  0  0  0  0  0  0  0  0
   -4.8788   -1.0112    2.1747 H   0  0  0  0  0  0  0  0  0  0  0  0
   -3.3493   -1.2709    1.2629 H   0  0  0  0  0  0  0  0  0  0  0  0
   -4.4643   -0.5653   -1.5195 H   0  0  0  0  0  0  0  0  0  0  0  0
   -2.8981   -0.1941   -0.7091 H   0  0  0  0  0  0  0  0  0  0  0  0
   -5.0050    1.8573   -1.4823 H   0  0  0  0  0  0  0  0  0  0  0  0
   -3.4993    1.4821   -2.4302 H   0  0  0  0  0  0  0  0  0  0  0  0
   -3.8030    2.4856    0.4545 H   0  0  0  0  0  0  0  0  0  0  0  0
   -3.3340    3.4954   -0.9152 H   0  0  0  0  0  0  0  0  0  0  0  0
   -1.5971    1.8198    0.6753 H   0  0  0  0  0  0  0  0  0  0  0  0
    0.3059    1.2818    1.0402 H   0  0  0  0  0  0  0  0  0  0  0  0
    2.5245    0.5510    1.4019 H   0  0  0  0  0  0  0  0  0  0  0  0
    0.9543    1.4448   -3.1268 H   0  0  0  0  0  0  0  0  0  0  0  0
    5.1688   -0.2802    1.3762 H   0  0  0  0  0  0  0  0  0  0  0  0
    8.7476   -1.1528   -1.5638 H   0  0  0  0  0  0  0  0  0  0  0  0
   10.8491   -1.8993   -0.6013 H   0  0  0  0  0  0  0  0  0  0  0  0
    9.1464   -1.7001    3.2754 H   0  0  0  0  0  0  0  0  0  0  0  0
    6.9650   -0.9262    2.2945 H   0  0  0  0  0  0  0  0  0  0  0  0
  1  2  1  0
  2  3  1  0
  3  4  1  0
  4  5  1  0
  5  6  1  0
  6  7  1  0
  7  8  1  0
  8  9  1  0
  9 10  1  0
 10 11  1  0
 11 12  1  0
 12 13  2  0
 12 14  1  0
 14 15  2  0
 15 16  1  0
 16 17  2  0
 17 18  1  0
 18 19  2  0
 18 20  1  0
 20 21  1  0
 21 22  2  0
 22 23  1  0
 23 24  2  0
 24 25  1  0
 23 26  1  0
 26 27  2  0
 27 28  1  0
 28 29  2  0
 29 30  1  0
 29 31  1  0
 31 32  2  0
  7  2  1  0
 19 14  1  0
 25 17  1  0
 25 21  1  0
 32 26  1  0
  1 33  1  0
  1 34  1  0
  1 35  1  0
  2 36  1  0
  3 37  1  0
  3 38  1  0
  4 39  1  0
  4 40  1  0
  5 41  1  0
  5 42  1  0
  6 43  1  0
  6 44  1  0
  8 45  1  0
  8 46  1  0
  9 47  1  0
  9 48  1  0
 10 49  1  0
 10 50  1  0
 11 51  1  0
 15 52  1  0
 16 53  1  0
 19 54  1  0
 24 55  1  0
 27 56  1  0
 28 57  1  0
 31 58  1  0
 32 59  1  0
M  END
>  <Batch_No>  (82) 
E235-1811

>  <EC50_nM>  (82) 
648

>  <Set>  (82) 
Drug-like

>  <Molecular_Weight>  (82) 
450.57148

>  <ALogP>  (82) 
4.786

$$$$
MMV666103
     RDKit          3D

 44 46  0  0  0  0  0  0  0  0999 V2000
   -2.1814   -0.7111   -3.0191 C   0  0  0  0  0  0  0  0  0  0  0  0
   -2.4931    0.7036   -2.5705 C   0  0  0  0  0  0  0  0  0  0  0  0
   -3.0633    0.6094   -1.2390 N   0  0  0  0  0  0  0  0  0  0  0  0
   -2.2824    0.6524   -0.1336 C   0  0  0  0  0  0  0  0  0  0  0  0
   -2.9012    0.5568    1.0761 N   0  0  0  0  0  0  0  0  0  0  0  0
   -4.2243    0.4249    1.2056 C   0  0  0  0  0  0  0  0  0  0  0  0
   -4.8550    0.3274    2.4374 C   0  0  0  0  0  0  0  0  0  0  0  0
   -6.2427    0.1921    2.4704 C   0  0  0  0  0  0  0  0  0  0  0  0
   -7.0107    0.1514    1.3317 C   0  0  0  0  0  0  0  0  0  0  0  0
   -6.3736    0.2493    0.1066 C   0  0  0  0  0  0  0  0  0  0  0  0
   -4.9968    0.3835    0.0723 C   0  0  0  0  0  0  0  0  0  0  0  0
   -4.3991    0.4777   -1.1591 C   0  0  0  0  0  0  0  0  0  0  0  0
   -5.1026    0.4410   -2.2249 O   0  0  0  0  0  0  0  0  0  0  0  0
   -0.5101    0.8276   -0.2707 S   0  0  0  0  0  0  0  0  0  0  0  0
    0.3554   -0.7372   -0.3817 C   0  0  0  0  0  0  0  0  0  0  0  0
    1.8179   -0.4132   -0.4893 C   0  0  0  0  0  0  0  0  0  0  0  0
    2.3373   -0.2593   -1.6457 O   0  0  0  0  0  0  0  0  0  0  0  0
    2.6526   -0.2698    0.6417 N   0  0  0  0  0  0  0  0  0  0  0  0
    4.0303    0.0393    0.4179 C   0  0  0  0  0  0  0  0  0  0  0  0
    5.0029   -0.9046    0.2667 C   0  0  0  0  0  0  0  0  0  0  0  0
    6.3188   -0.5269    0.0515 C   0  0  0  0  0  0  0  0  0  0  0  0
    6.7081    0.7942   -0.0200 C   0  0  0  0  0  0  0  0  0  0  0  0
    5.7300    1.7493    0.1320 C   0  0  0  0  0  0  0  0  0  0  0  0
    4.4053    1.3741    0.3487 C   0  0  0  0  0  0  0  0  0  0  0  0
    3.1740    2.6312    0.5395 Cl  0  0  0  0  0  0  0  0  0  0  0  0
    7.3102   -1.6208   -0.1015 C   0  0  0  0  0  0  0  0  0  0  0  0
    8.5715   -1.1248   -0.3369 F   0  0  0  0  0  0  0  0  0  0  0  0
    6.9443   -2.4083   -1.1866 F   0  0  0  0  0  0  0  0  0  0  0  0
    7.3708   -2.3975    1.0529 F   0  0  0  0  0  0  0  0  0  0  0  0
   -1.2121   -0.7910   -3.5597 H   0  0  0  0  0  0  0  0  0  0  0  0
   -2.1066   -1.3875   -2.1379 H   0  0  0  0  0  0  0  0  0  0  0  0
   -3.0291   -1.0970   -3.6234 H   0  0  0  0  0  0  0  0  0  0  0  0
   -3.2115    1.1245   -3.2878 H   0  0  0  0  0  0  0  0  0  0  0  0
   -1.5822    1.3380   -2.5508 H   0  0  0  0  0  0  0  0  0  0  0  0
   -4.2702    0.3575    3.3349 H   0  0  0  0  0  0  0  0  0  0  0  0
   -6.7612    0.1135    3.4360 H   0  0  0  0  0  0  0  0  0  0  0  0
   -8.1018    0.0445    1.3761 H   0  0  0  0  0  0  0  0  0  0  0  0
   -6.9536    0.2201   -0.8050 H   0  0  0  0  0  0  0  0  0  0  0  0
    0.2628   -1.3620    0.5289 H   0  0  0  0  0  0  0  0  0  0  0  0
    0.1248   -1.3459   -1.2570 H   0  0  0  0  0  0  0  0  0  0  0  0
    2.2534   -0.3893    1.5755 H   0  0  0  0  0  0  0  0  0  0  0  0
    4.7362   -1.9349    0.3164 H   0  0  0  0  0  0  0  0  0  0  0  0
    7.7472    1.0884   -0.1899 H   0  0  0  0  0  0  0  0  0  0  0  0
    6.0107    2.8089    0.0797 H   0  0  0  0  0  0  0  0  0  0  0  0
  1  2  1  0
  2  3  1  0
  3  4  1  0
  4  5  2  0
  5  6  1  0
  6  7  2  0
  7  8  1  0
  8  9  2  0
  9 10  1  0
 10 11  2  0
 11 12  1  0
 12 13  2  0
  4 14  1  0
 14 15  1  0
 15 16  1  0
 16 17  2  0
 16 18  1  0
 18 19  1  0
 19 20  2  0
 20 21  1  0
 21 22  2  0
 22 23  1  0
 23 24  2  0
 24 25  1  0
 21 26  1  0
 26 27  1  0
 26 28  1  0
 26 29  1  0
 12  3  1  0
 11  6  1  0
 24 19  1  0
  1 30  1  0
  1 31  1  0
  1 32  1  0
  2 33  1  0
  2 34  1  0
  7 35  1  0
  8 36  1  0
  9 37  1  0
 10 38  1  0
 15 39  1  0
 15 40  1  0
 18 41  1  0
 20 42  1  0
 22 43  1  0
 23 44  1  0
M  END
>  <Batch_No>  (83) 
BAS 02538915

>  <EC50_nM>  (83) 
1000

>  <Set>  (83) 
Drug-like

>  <Molecular_Weight>  (83) 
441.8545

>  <ALogP>  (83) 
4.828

$$$$
MMV666057
     RDKit          3D

 39 41  0  0  0  0  0  0  0  0999 V2000
   -6.5619    3.4628    0.4414 Cl  0  0  0  0  0  0  0  0  0  0  0  0
   -5.3929    2.1857    0.1602 C   0  0  0  0  0  0  0  0  0  0  0  0
   -5.6193    0.9500    0.7654 C   0  0  0  0  0  0  0  0  0  0  0  0
   -4.7150   -0.0689    0.5594 C   0  0  0  0  0  0  0  0  0  0  0  0
   -3.6082    0.1552   -0.2391 C   0  0  0  0  0  0  0  0  0  0  0  0
   -2.6762   -0.9912   -0.4172 C   0  0  0  0  0  0  0  0  0  0  0  0
   -3.1824   -1.9988   -0.9483 O   0  0  0  0  0  0  0  0  0  0  0  0
   -1.3190   -0.8809    0.0089 N   0  0  0  0  0  0  0  0  0  0  0  0
   -0.3558   -1.9140   -0.1071 C   0  0  0  0  0  0  0  0  0  0  0  0
   -0.7495   -3.2225   -0.2851 C   0  0  0  0  0  0  0  0  0  0  0  0
    0.1286   -4.2817   -0.4243 C   0  0  0  0  0  0  0  0  0  0  0  0
    1.4736   -4.0580   -0.3880 C   0  0  0  0  0  0  0  0  0  0  0  0
    2.5994   -5.3769   -0.5601 Cl  0  0  0  0  0  0  0  0  0  0  0  0
    1.8978   -2.7359   -0.2082 C   0  0  0  0  0  0  0  0  0  0  0  0
    1.0127   -1.6863   -0.0713 C   0  0  0  0  0  0  0  0  0  0  0  0
    1.5607   -0.3121    0.0634 C   0  0  0  0  0  0  0  0  0  0  0  0
    0.8151    0.6951    0.0397 O   0  0  0  0  0  0  0  0  0  0  0  0
    2.9445   -0.0674    0.2260 N   0  0  0  0  0  0  0  0  0  0  0  0
    3.5736    1.1837    0.3616 C   0  0  0  0  0  0  0  0  0  0  0  0
    2.9779    2.4089    0.3622 C   0  0  0  0  0  0  0  0  0  0  0  0
    3.7174    3.5856    0.5066 C   0  0  0  0  0  0  0  0  0  0  0  0
    5.0476    3.5589    0.6512 N   0  0  0  0  0  0  0  0  0  0  0  0
    5.6818    2.3596    0.6563 C   0  0  0  0  0  0  0  0  0  0  0  0
    4.9714    1.1967    0.5157 C   0  0  0  0  0  0  0  0  0  0  0  0
   -3.3596    1.3707   -0.8512 C   0  0  0  0  0  0  0  0  0  0  0  0
   -1.9331    1.6000   -1.8578 Cl  0  0  0  0  0  0  0  0  0  0  0  0
   -4.2761    2.3813   -0.6342 C   0  0  0  0  0  0  0  0  0  0  0  0
   -6.4999    0.7790    1.3979 H   0  0  0  0  0  0  0  0  0  0  0  0
   -4.8997   -1.0384    1.0387 H   0  0  0  0  0  0  0  0  0  0  0  0
   -1.1073    0.0612    0.4565 H   0  0  0  0  0  0  0  0  0  0  0  0
   -1.8064   -3.5307   -0.3153 H   0  0  0  0  0  0  0  0  0  0  0  0
   -0.2149   -5.3103   -0.5649 H   0  0  0  0  0  0  0  0  0  0  0  0
    2.9766   -2.6337   -0.1932 H   0  0  0  0  0  0  0  0  0  0  0  0
    3.5628   -0.9099    0.2525 H   0  0  0  0  0  0  0  0  0  0  0  0
    1.9277    2.5360    0.2537 H   0  0  0  0  0  0  0  0  0  0  0  0
    3.2174    4.5573    0.5041 H   0  0  0  0  0  0  0  0  0  0  0  0
    6.7550    2.3800    0.7753 H   0  0  0  0  0  0  0  0  0  0  0  0
    5.5453    0.2735    0.5291 H   0  0  0  0  0  0  0  0  0  0  0  0
   -4.1097    3.3365   -1.0963 H   0  0  0  0  0  0  0  0  0  0  0  0
  1  2  1  0
  2  3  2  0
  3  4  1  0
  4  5  2  0
  5  6  1  0
  6  7  2  0
  6  8  1  0
  8  9  1  0
  9 10  2  0
 10 11  1  0
 11 12  2  0
 12 13  1  0
 12 14  1  0
 14 15  2  0
 15 16  1  0
 16 17  2  0
 16 18  1  0
 18 19  1  0
 19 20  2  0
 20 21  1  0
 21 22  2  0
 22 23  1  0
 23 24  2  0
  5 25  1  0
 25 26  1  0
 25 27  2  0
 27  2  1  0
 15  9  1  0
 24 19  1  0
  3 28  1  0
  4 29  1  0
  8 30  1  0
 10 31  1  0
 11 32  1  0
 14 33  1  0
 18 34  1  0
 20 35  1  0
 21 36  1  0
 23 37  1  0
 24 38  1  0
 27 39  1  0
M  END
>  <Batch_No>  (84) 
7515644

>  <EC50_nM>  (84) 
ND

>  <Set>  (84) 
Drug-like

>  <Molecular_Weight>  (84) 
420.67648

>  <ALogP>  (84) 
4.242

$$$$
MMV007564
     RDKit          3D

 60 64  0  0  0  0  0  0  0  0999 V2000
   -5.3759    4.2586   -0.4709 C   0  0  0  0  0  0  0  0  0  0  0  0
   -4.7424    2.9244   -0.6709 C   0  0  0  0  0  0  0  0  0  0  0  0
   -5.4641    1.7638   -0.5380 C   0  0  0  0  0  0  0  0  0  0  0  0
   -4.8662    0.5369   -0.7260 C   0  0  0  0  0  0  0  0  0  0  0  0
   -3.5163    0.4073   -1.0564 C   0  0  0  0  0  0  0  0  0  0  0  0
   -2.8833   -0.8860   -1.2657 C   0  0  0  0  0  0  0  0  0  0  0  0
   -2.4323   -1.5893   -0.1083 N   0  0  0  0  0  0  0  0  0  0  0  0
   -1.2417   -1.5330    0.5107 C   0  0  0  0  0  0  0  0  0  0  0  0
   -1.2409   -2.3922    1.5744 N   0  0  0  0  0  0  0  0  0  0  0  0
   -2.4364   -3.0017    1.6375 C   0  0  0  0  0  0  0  0  0  0  0  0
   -2.9236   -3.9444    2.5195 C   0  0  0  0  0  0  0  0  0  0  0  0
   -4.2041   -4.4275    2.3734 C   0  0  0  0  0  0  0  0  0  0  0  0
   -4.9708   -3.9414    1.3280 C   0  0  0  0  0  0  0  0  0  0  0  0
   -4.4618   -2.9925    0.4511 C   0  0  0  0  0  0  0  0  0  0  0  0
   -3.1754   -2.4987    0.5876 C   0  0  0  0  0  0  0  0  0  0  0  0
   -0.1008   -0.7435    0.2118 N   0  0  0  0  0  0  0  0  0  0  0  0
    0.2111    0.4979    0.9034 C   0  0  0  0  0  0  0  0  0  0  0  0
    1.6473    0.9028    0.7087 C   0  0  0  0  0  0  0  0  0  0  0  0
    2.6200   -0.2090    0.5875 C   0  0  0  0  0  0  0  0  0  0  0  0
    2.1316   -1.4497   -0.0795 C   0  0  0  0  0  0  0  0  0  0  0  0
    0.8601   -1.1312   -0.8354 C   0  0  0  0  0  0  0  0  0  0  0  0
    3.7926    0.2915   -0.2168 C   0  0  0  0  0  0  0  0  0  0  0  0
    3.7449    1.4814   -0.6166 O   0  0  0  0  0  0  0  0  0  0  0  0
    4.8944   -0.5600   -0.4998 N   0  0  0  0  0  0  0  0  0  0  0  0
    6.0526   -0.1466   -1.2649 C   0  0  0  0  0  0  0  0  0  0  0  0
    6.6871    0.9869   -0.5547 C   0  0  0  0  0  0  0  0  0  0  0  0
    7.6460    0.9550    0.3941 C   0  0  0  0  0  0  0  0  0  0  0  0
    8.1062    2.0918    0.9295 C   0  0  0  0  0  0  0  0  0  0  0  0
    7.5334    3.2725    0.4433 C   0  0  0  0  0  0  0  0  0  0  0  0
    6.3046    2.6987   -0.8154 S   0  0  0  0  0  0  0  0  0  0  0  0
   -2.8222    1.5979   -1.1817 C   0  0  0  0  0  0  0  0  0  0  0  0
   -3.4063    2.8339   -0.9967 C   0  0  0  0  0  0  0  0  0  0  0  0
   -6.4694    4.1140   -0.2880 H   0  0  0  0  0  0  0  0  0  0  0  0
   -4.9117    4.8320    0.3321 H   0  0  0  0  0  0  0  0  0  0  0  0
   -5.2819    4.8688   -1.4056 H   0  0  0  0  0  0  0  0  0  0  0  0
   -6.5324    1.8257   -0.2781 H   0  0  0  0  0  0  0  0  0  0  0  0
   -5.4990   -0.3306   -0.6047 H   0  0  0  0  0  0  0  0  0  0  0  0
   -3.4941   -1.5617   -1.9276 H   0  0  0  0  0  0  0  0  0  0  0  0
   -1.9606   -0.6959   -1.8898 H   0  0  0  0  0  0  0  0  0  0  0  0
   -2.2832   -4.2925    3.3210 H   0  0  0  0  0  0  0  0  0  0  0  0
   -4.5983   -5.1648    3.0560 H   0  0  0  0  0  0  0  0  0  0  0  0
   -5.9756   -4.3360    1.2321 H   0  0  0  0  0  0  0  0  0  0  0  0
   -5.1016   -2.6646   -0.3291 H   0  0  0  0  0  0  0  0  0  0  0  0
   -0.0654    0.3894    1.9722 H   0  0  0  0  0  0  0  0  0  0  0  0
   -0.4133    1.2998    0.4718 H   0  0  0  0  0  0  0  0  0  0  0  0
    1.7316    1.6191   -0.1461 H   0  0  0  0  0  0  0  0  0  0  0  0
    1.9265    1.5063    1.6208 H   0  0  0  0  0  0  0  0  0  0  0  0
    3.0707   -0.4405    1.5922 H   0  0  0  0  0  0  0  0  0  0  0  0
    2.8965   -1.9311   -0.7362 H   0  0  0  0  0  0  0  0  0  0  0  0
    1.9416   -2.2119    0.7254 H   0  0  0  0  0  0  0  0  0  0  0  0
    0.5500   -2.0332   -1.3655 H   0  0  0  0  0  0  0  0  0  0  0  0
    1.0836   -0.2678   -1.5001 H   0  0  0  0  0  0  0  0  0  0  0  0
    4.8203   -1.5407   -0.1106 H   0  0  0  0  0  0  0  0  0  0  0  0
    5.7896    0.1396   -2.3021 H   0  0  0  0  0  0  0  0  0  0  0  0
    6.7667   -0.9725   -1.2963 H   0  0  0  0  0  0  0  0  0  0  0  0
    8.0562   -0.0390    0.7320 H   0  0  0  0  0  0  0  0  0  0  0  0
    8.8840    2.1722    1.7065 H   0  0  0  0  0  0  0  0  0  0  0  0
    7.7006    4.3326    0.6831 H   0  0  0  0  0  0  0  0  0  0  0  0
   -1.7741    1.5968   -1.4415 H   0  0  0  0  0  0  0  0  0  0  0  0
   -2.8247    3.7316   -1.1050 H   0  0  0  0  0  0  0  0  0  0  0  0
  1  2  1  0
  2  3  2  0
  3  4  1  0
  4  5  2  0
  5  6  1  0
  6  7  1  0
  7  8  1  0
  8  9  2  0
  9 10  1  0
 10 11  2  0
 11 12  1  0
 12 13  2  0
 13 14  1  0
 14 15  2  0
  8 16  1  0
 16 17  1  0
 17 18  1  0
 18 19  1  0
 19 20  1  0
 20 21  1  0
 19 22  1  0
 22 23  2  0
 22 24  1  0
 24 25  1  0
 25 26  1  0
 26 27  2  0
 27 28  1  0
 28 29  2  0
 29 30  1  0
  5 31  1  0
 31 32  2  0
 32  2  1  0
 15  7  1  0
 15 10  1  0
 21 16  1  0
 30 26  1  0
  1 33  1  0
  1 34  1  0
  1 35  1  0
  3 36  1  0
  4 37  1  0
  6 38  1  0
  6 39  1  0
 11 40  1  0
 12 41  1  0
 13 42  1  0
 14 43  1  0
 17 44  1  0
 17 45  1  0
 18 46  1  0
 18 47  1  0
 19 48  1  0
 20 49  1  0
 20 50  1  0
 21 51  1  0
 21 52  1  0
 24 53  1  0
 25 54  1  0
 25 55  1  0
 27 56  1  0
 28 57  1  0
 29 58  1  0
 31 59  1  0
 32 60  1  0
M  END
>  <Batch_No>  (85) 
C776-3612

>  <EC50_nM>  (85) 
947

>  <Set>  (85) 
Drug-like

>  <Molecular_Weight>  (85) 
444.59172

>  <ALogP>  (85) 
4.708

$$$$
MMV001255
     RDKit          3D

 51 54  0  0  0  0  0  0  0  0999 V2000
    6.4200   -1.2970    2.1368 C   0  0  0  0  0  0  0  0  0  0  0  0
    5.8020   -0.4066    1.0601 C   0  0  0  0  0  0  0  0  0  0  0  0
    5.2514   -1.2957   -0.0105 C   0  0  0  0  0  0  0  0  0  0  0  0
    4.6045   -0.5764   -1.1514 C   0  0  0  0  0  0  0  0  0  0  0  0
    3.4646    0.2638   -0.7722 C   0  0  0  0  0  0  0  0  0  0  0  0
    3.6599    1.6025   -0.4227 C   0  0  0  0  0  0  0  0  0  0  0  0
    2.5892    2.3710   -0.0724 C   0  0  0  0  0  0  0  0  0  0  0  0
    1.2806    1.8932   -0.0403 C   0  0  0  0  0  0  0  0  0  0  0  0
    0.2795    2.7997    0.3293 N   0  0  0  0  0  0  0  0  0  0  0  0
   -1.1967    3.0746   -0.4948 S   0  0  0  0  0  0  0  0  0  0  0  0
   -0.8778    3.6048   -1.8715 O   0  0  0  0  0  0  0  0  0  0  0  0
   -1.9156    4.2128    0.2213 O   0  0  0  0  0  0  0  0  0  0  0  0
   -2.2357    1.6768   -0.5862 C   0  0  0  0  0  0  0  0  0  0  0  0
   -2.2883    0.8339   -1.6764 C   0  0  0  0  0  0  0  0  0  0  0  0
   -3.1399   -0.2496   -1.6638 C   0  0  0  0  0  0  0  0  0  0  0  0
   -3.4469   -1.3325   -2.6329 C   0  0  0  0  0  0  0  0  0  0  0  0
   -4.4765   -2.1970   -1.9905 C   0  0  0  0  0  0  0  0  0  0  0  0
   -4.7341   -1.6067   -0.6955 N   0  0  0  0  0  0  0  0  0  0  0  0
   -5.5841   -1.9218    0.3955 C   0  0  0  0  0  0  0  0  0  0  0  0
   -6.6049   -2.6325    0.1963 O   0  0  0  0  0  0  0  0  0  0  0  0
   -5.2107   -1.3841    1.7293 C   0  0  0  0  0  0  0  0  0  0  0  0
   -4.7797    0.0466    1.7108 C   0  0  0  0  0  0  0  0  0  0  0  0
   -3.8999    0.3509    0.5518 C   0  0  0  0  0  0  0  0  0  0  0  0
   -3.0442    1.4337    0.5306 C   0  0  0  0  0  0  0  0  0  0  0  0
   -3.9101   -0.4555   -0.5637 C   0  0  0  0  0  0  0  0  0  0  0  0
    1.1061    0.5803   -0.3849 C   0  0  0  0  0  0  0  0  0  0  0  0
    2.1758   -0.2206   -0.7443 C   0  0  0  0  0  0  0  0  0  0  0  0
    6.1710   -0.9303    3.1557 H   0  0  0  0  0  0  0  0  0  0  0  0
    5.9999   -2.3107    2.0548 H   0  0  0  0  0  0  0  0  0  0  0  0
    7.5157   -1.3156    1.9902 H   0  0  0  0  0  0  0  0  0  0  0  0
    5.0100    0.1853    1.5677 H   0  0  0  0  0  0  0  0  0  0  0  0
    6.5930    0.2331    0.6305 H   0  0  0  0  0  0  0  0  0  0  0  0
    6.1269   -1.8483   -0.4501 H   0  0  0  0  0  0  0  0  0  0  0  0
    4.5716   -2.0676    0.3520 H   0  0  0  0  0  0  0  0  0  0  0  0
    4.2981   -1.3501   -1.8850 H   0  0  0  0  0  0  0  0  0  0  0  0
    5.3571    0.0891   -1.6331 H   0  0  0  0  0  0  0  0  0  0  0  0
    4.6740    1.9799   -0.4455 H   0  0  0  0  0  0  0  0  0  0  0  0
    2.7917    3.4122    0.1930 H   0  0  0  0  0  0  0  0  0  0  0  0
    0.4821    3.3630    1.2187 H   0  0  0  0  0  0  0  0  0  0  0  0
   -1.6535    1.0436   -2.5270 H   0  0  0  0  0  0  0  0  0  0  0  0
   -2.5429   -1.8768   -2.9543 H   0  0  0  0  0  0  0  0  0  0  0  0
   -3.8203   -0.8271   -3.5633 H   0  0  0  0  0  0  0  0  0  0  0  0
   -5.4235   -2.1467   -2.5919 H   0  0  0  0  0  0  0  0  0  0  0  0
   -4.1469   -3.2687   -1.9223 H   0  0  0  0  0  0  0  0  0  0  0  0
   -6.0618   -1.4576    2.4459 H   0  0  0  0  0  0  0  0  0  0  0  0
   -4.3914   -2.0243    2.1607 H   0  0  0  0  0  0  0  0  0  0  0  0
   -5.6811    0.6989    1.5760 H   0  0  0  0  0  0  0  0  0  0  0  0
   -4.2675    0.2483    2.6713 H   0  0  0  0  0  0  0  0  0  0  0  0
   -3.0101    2.0868    1.3876 H   0  0  0  0  0  0  0  0  0  0  0  0
    0.1370    0.1587   -0.3717 H   0  0  0  0  0  0  0  0  0  0  0  0
    1.9827   -1.2436   -1.0058 H   0  0  0  0  0  0  0  0  0  0  0  0
  1  2  1  0
  2  3  1  0
  3  4  1  0
  4  5  1  0
  5  6  2  0
  6  7  1  0
  7  8  2  0
  8  9  1  0
  9 10  1  0
 10 11  2  0
 10 12  2  0
 10 13  1  0
 13 14  2  0
 14 15  1  0
 15 16  1  0
 16 17  1  0
 17 18  1  0
 18 19  1  0
 19 20  2  0
 19 21  1  0
 21 22  1  0
 22 23  1  0
 23 24  2  0
 23 25  1  0
  8 26  1  0
 26 27  2  0
 27  5  1  0
 24 13  1  0
 25 15  2  0
 25 18  1  0
  1 28  1  0
  1 29  1  0
  1 30  1  0
  2 31  1  0
  2 32  1  0
  3 33  1  0
  3 34  1  0
  4 35  1  0
  4 36  1  0
  6 37  1  0
  7 38  1  0
  9 39  1  0
 14 40  1  0
 16 41  1  0
 16 42  1  0
 17 43  1  0
 17 44  1  0
 21 45  1  0
 21 46  1  0
 22 47  1  0
 22 48  1  0
 24 49  1  0
 26 50  1  0
 27 51  1  0
M  END
>  <Batch_No>  (86) 
G856-5516

>  <EC50_nM>  (86) 
538

>  <Set>  (86) 
Drug-like

>  <Molecular_Weight>  (86) 
384.49185

>  <ALogP>  (86) 
3.898

$$$$
MMV665917
     RDKit          3D

 41 44  0  0  0  0  0  0  0  0999 V2000
   -8.5318    1.2158   -1.2554 Cl  0  0  0  0  0  0  0  0  0  0  0  0
   -6.8449    1.0352   -0.8310 C   0  0  0  0  0  0  0  0  0  0  0  0
   -5.9418    2.0762   -0.8661 C   0  0  0  0  0  0  0  0  0  0  0  0
   -4.6277    1.9047   -0.5285 C   0  0  0  0  0  0  0  0  0  0  0  0
   -4.1312    0.6570   -0.1283 C   0  0  0  0  0  0  0  0  0  0  0  0
   -2.7710    0.5689    0.2000 N   0  0  0  0  0  0  0  0  0  0  0  0
   -2.0765   -0.5772    0.6234 C   0  0  0  0  0  0  0  0  0  0  0  0
   -2.6257   -1.6763    0.7541 O   0  0  0  0  0  0  0  0  0  0  0  0
   -0.6700   -0.5161    0.9279 N   0  0  0  0  0  0  0  0  0  0  0  0
    0.0355   -1.6990    1.3610 C   0  0  0  0  0  0  0  0  0  0  0  0
    1.4242   -1.7906    0.7780 C   0  0  0  0  0  0  0  0  0  0  0  0
    2.0946   -0.5092    0.7498 N   0  0  0  0  0  0  0  0  0  0  0  0
    1.4442    0.6335    1.3379 C   0  0  0  0  0  0  0  0  0  0  0  0
    0.0512    0.7379    0.8022 C   0  0  0  0  0  0  0  0  0  0  0  0
    3.3753   -0.4549    0.1348 C   0  0  0  0  0  0  0  0  0  0  0  0
    3.8995   -1.6171   -0.3893 C   0  0  0  0  0  0  0  0  0  0  0  0
    5.1566   -1.5692   -0.9958 C   0  0  0  0  0  0  0  0  0  0  0  0
    5.8297   -0.3659   -1.0500 C   0  0  0  0  0  0  0  0  0  0  0  0
    7.0327   -0.0609   -1.5709 N   0  0  0  0  0  0  0  0  0  0  0  0
    7.2450    1.2492   -1.3746 N   0  0  0  0  0  0  0  0  0  0  0  0
    6.1616    1.7230   -0.7337 C   0  0  0  0  0  0  0  0  0  0  0  0
    5.2660    0.7349   -0.5204 N   0  0  0  0  0  0  0  0  0  0  0  0
    4.0609    0.6940    0.0618 N   0  0  0  0  0  0  0  0  0  0  0  0
   -5.0429   -0.3583   -0.1010 C   0  0  0  0  0  0  0  0  0  0  0  0
   -6.3770   -0.1910   -0.4421 C   0  0  0  0  0  0  0  0  0  0  0  0
   -6.2860    3.0471   -1.1681 H   0  0  0  0  0  0  0  0  0  0  0  0
   -3.9820    2.7728   -0.5824 H   0  0  0  0  0  0  0  0  0  0  0  0
   -2.1859    1.4527    0.1265 H   0  0  0  0  0  0  0  0  0  0  0  0
   -0.5287   -2.5817    0.9918 H   0  0  0  0  0  0  0  0  0  0  0  0
    0.1025   -1.7065    2.4589 H   0  0  0  0  0  0  0  0  0  0  0  0
    1.3717   -2.2360   -0.2377 H   0  0  0  0  0  0  0  0  0  0  0  0
    1.9894   -2.5241    1.3904 H   0  0  0  0  0  0  0  0  0  0  0  0
    1.9561    1.5844    1.1079 H   0  0  0  0  0  0  0  0  0  0  0  0
    1.4253    0.4835    2.4413 H   0  0  0  0  0  0  0  0  0  0  0  0
   -0.5547    1.5083    1.3379 H   0  0  0  0  0  0  0  0  0  0  0  0
    0.0781    0.9865   -0.2783 H   0  0  0  0  0  0  0  0  0  0  0  0
    3.3817   -2.5528   -0.3495 H   0  0  0  0  0  0  0  0  0  0  0  0
    5.5916   -2.4640   -1.4149 H   0  0  0  0  0  0  0  0  0  0  0  0
    6.0238    2.7684   -0.4260 H   0  0  0  0  0  0  0  0  0  0  0  0
   -4.7527   -1.3458    0.1926 H   0  0  0  0  0  0  0  0  0  0  0  0
   -7.0667   -1.0371   -0.4035 H   0  0  0  0  0  0  0  0  0  0  0  0
  1  2  1  0
  2  3  2  0
  3  4  1  0
  4  5  2  0
  5  6  1  0
  6  7  1  0
  7  8  2  0
  7  9  1  0
  9 10  1  0
 10 11  1  0
 11 12  1  0
 12 13  1  0
 13 14  1  0
 12 15  1  0
 15 16  1  0
 16 17  2  0
 17 18  1  0
 18 19  2  0
 19 20  1  0
 20 21  2  0
 21 22  1  0
 22 23  1  0
  5 24  1  0
 24 25  2  0
 25  2  1  0
 14  9  1  0
 23 15  2  0
 22 18  1  0
  3 26  1  0
  4 27  1  0
  6 28  1  0
 10 29  1  0
 10 30  1  0
 11 31  1  0
 11 32  1  0
 13 33  1  0
 13 34  1  0
 14 35  1  0
 14 36  1  0
 16 37  1  0
 17 38  1  0
 21 39  1  0
 24 40  1  0
 25 41  1  0
M  END
>  <Batch_No>  (87) 
F5123-0125

>  <EC50_nM>  (87) 
ND

>  <Set>  (87) 
Drug-like

>  <Molecular_Weight>  (87) 
357.79754

>  <ALogP>  (87) 
1.693

$$$$
MMV000563
     RDKit          3D

 44 48  0  0  0  0  0  0  0  0999 V2000
    6.5320   -1.0953    0.8245 C   0  0  0  0  0  0  0  0  0  0  0  0
    5.6074   -1.3719   -0.2078 O   0  0  0  0  0  0  0  0  0  0  0  0
    4.3255   -0.8421   -0.1517 C   0  0  0  0  0  0  0  0  0  0  0  0
    3.3975   -1.0956   -1.1484 C   0  0  0  0  0  0  0  0  0  0  0  0
    2.1268   -0.5639   -1.0820 C   0  0  0  0  0  0  0  0  0  0  0  0
    1.7188    0.2474   -0.0177 C   0  0  0  0  0  0  0  0  0  0  0  0
    2.6821    0.4762    0.9610 C   0  0  0  0  0  0  0  0  0  0  0  0
    3.9494   -0.0540    0.8950 C   0  0  0  0  0  0  0  0  0  0  0  0
    0.3541    0.8212    0.0580 C   0  0  0  0  0  0  0  0  0  0  0  0
    0.1379    1.8318   -1.4316 S   0  0  0  0  0  0  0  0  0  0  0  0
   -1.3674    2.7793   -1.1805 C   0  0  0  0  0  0  0  0  0  0  0  0
   -1.2241    4.1223   -1.4393 C   0  0  0  0  0  0  0  0  0  0  0  0
   -2.2972    4.9737   -1.2882 C   0  0  0  0  0  0  0  0  0  0  0  0
   -3.5073    4.4549   -0.8757 C   0  0  0  0  0  0  0  0  0  0  0  0
   -3.6320    3.1084   -0.6214 C   0  0  0  0  0  0  0  0  0  0  0  0
   -2.5709    2.2176   -0.7627 C   0  0  0  0  0  0  0  0  0  0  0  0
   -2.8850    0.8891   -0.4609 N   0  0  0  0  0  0  0  0  0  0  0  0
   -2.1215   -0.0796   -0.0875 C   0  0  0  0  0  0  0  0  0  0  0  0
   -0.7104   -0.1650    0.1532 C   0  0  0  0  0  0  0  0  0  0  0  0
   -0.4580   -1.4268    0.5253 C   0  0  0  0  0  0  0  0  0  0  0  0
    0.7772   -1.9767    0.8618 O   0  0  0  0  0  0  0  0  0  0  0  0
   -1.6871   -2.2024    0.5398 C   0  0  0  0  0  0  0  0  0  0  0  0
   -1.9929   -3.5286    0.8424 C   0  0  0  0  0  0  0  0  0  0  0  0
   -3.2887   -4.0136    0.7700 C   0  0  0  0  0  0  0  0  0  0  0  0
   -4.3392   -3.1860    0.3891 C   0  0  0  0  0  0  0  0  0  0  0  0
   -4.0294   -1.8807    0.0927 C   0  0  0  0  0  0  0  0  0  0  0  0
   -2.7301   -1.4025    0.1674 C   0  0  0  0  0  0  0  0  0  0  0  0
    6.0833   -1.2475    1.8434 H   0  0  0  0  0  0  0  0  0  0  0  0
    7.3842   -1.7796    0.7048 H   0  0  0  0  0  0  0  0  0  0  0  0
    6.8765   -0.0345    0.8011 H   0  0  0  0  0  0  0  0  0  0  0  0
    3.6789   -1.7224   -1.9919 H   0  0  0  0  0  0  0  0  0  0  0  0
    1.3859   -0.7486   -1.8491 H   0  0  0  0  0  0  0  0  0  0  0  0
    2.3690    1.1036    1.7857 H   0  0  0  0  0  0  0  0  0  0  0  0
    4.6271    0.1915    1.7212 H   0  0  0  0  0  0  0  0  0  0  0  0
    0.3225    1.4426    0.9966 H   0  0  0  0  0  0  0  0  0  0  0  0
   -0.2350    4.4804   -1.7657 H   0  0  0  0  0  0  0  0  0  0  0  0
   -2.1990    6.0333   -1.4884 H   0  0  0  0  0  0  0  0  0  0  0  0
   -4.3810    5.0799   -0.7415 H   0  0  0  0  0  0  0  0  0  0  0  0
   -4.5692    2.6759   -0.2968 H   0  0  0  0  0  0  0  0  0  0  0  0
    0.8030   -2.5453    1.6990 H   0  0  0  0  0  0  0  0  0  0  0  0
   -1.2097   -4.1977    1.1401 H   0  0  0  0  0  0  0  0  0  0  0  0
   -3.5399   -5.0444    1.0031 H   0  0  0  0  0  0  0  0  0  0  0  0
   -5.3514   -3.5344    0.3245 H   0  0  0  0  0  0  0  0  0  0  0  0
   -4.8128   -1.1901   -0.2107 H   0  0  0  0  0  0  0  0  0  0  0  0
  1  2  1  0
  2  3  1  0
  3  4  2  0
  4  5  1  0
  5  6  2  0
  6  7  1  0
  7  8  2  0
  6  9  1  0
  9 10  1  0
 10 11  1  0
 11 12  2  0
 12 13  1  0
 13 14  2  0
 14 15  1  0
 15 16  2  0
 16 17  1  0
 17 18  2  0
 18 19  1  0
 19 20  2  0
 20 21  1  0
 20 22  1  0
 22 23  2  0
 23 24  1  0
 24 25  2  0
 25 26  1  0
 26 27  2  0
  8  3  1  0
 19  9  1  0
 16 11  1  0
 27 18  1  0
 27 22  1  0
  1 28  1  0
  1 29  1  0
  1 30  1  0
  4 31  1  0
  5 32  1  0
  7 33  1  0
  8 34  1  0
  9 35  1  0
 12 36  1  0
 13 37  1  0
 14 38  1  0
 15 39  1  0
 21 40  1  0
 23 41  1  0
 24 42  1  0
 25 43  1  0
 26 44  1  0
M  END
>  <Batch_No>  (88) 
STK789055

>  <EC50_nM>  (88) 
845

>  <Set>  (88) 
Drug-like

>  <Molecular_Weight>  (88) 
371.45158

>  <ALogP>  (88) 
4.978

$$$$
MMV665850
     RDKit          3D

 31 33  0  0  0  0  0  0  0  0999 V2000
    2.9557    2.4879    0.3622 O   0  0  0  0  0  0  0  0  0  0  0  0
    3.4648    1.1955    0.3615 C   0  0  0  0  0  0  0  0  0  0  0  0
    4.8362    1.0591    0.4688 C   0  0  0  0  0  0  0  0  0  0  0  0
    5.4421   -0.1974    0.4772 C   0  0  0  0  0  0  0  0  0  0  0  0
    4.6053   -1.3016    0.3729 C   0  0  0  0  0  0  0  0  0  0  0  0
    5.3122   -2.9208    0.3777 Cl  0  0  0  0  0  0  0  0  0  0  0  0
    3.2397   -1.1484    0.2666 C   0  0  0  0  0  0  0  0  0  0  0  0
    2.6359    0.0767    0.2574 C   0  0  0  0  0  0  0  0  0  0  0  0
    1.1910    0.3302    0.1480 C   0  0  0  0  0  0  0  0  0  0  0  0
    0.3766   -0.8312    0.0438 N   0  0  0  0  0  0  0  0  0  0  0  0
   -1.0506   -0.6256   -0.0658 C   0  0  0  0  0  0  0  0  0  0  0  0
   -2.0097   -1.5685   -0.1748 N   0  0  0  0  0  0  0  0  0  0  0  0
   -3.2199   -0.9954   -0.2546 C   0  0  0  0  0  0  0  0  0  0  0  0
   -4.4908   -1.5507   -0.3763 C   0  0  0  0  0  0  0  0  0  0  0  0
   -5.5825   -0.6936   -0.4372 C   0  0  0  0  0  0  0  0  0  0  0  0
   -5.3915    0.6904   -0.3763 C   0  0  0  0  0  0  0  0  0  0  0  0
   -4.1132    1.2251   -0.2546 C   0  0  0  0  0  0  0  0  0  0  0  0
   -3.0293    0.3683   -0.1944 C   0  0  0  0  0  0  0  0  0  0  0  0
   -1.7075    0.5563   -0.0806 N   0  0  0  0  0  0  0  0  0  0  0  0
    1.9671    2.6998    0.3523 H   0  0  0  0  0  0  0  0  0  0  0  0
    5.4921    1.9381    0.5509 H   0  0  0  0  0  0  0  0  0  0  0  0
    6.5151   -0.3021    0.5612 H   0  0  0  0  0  0  0  0  0  0  0  0
    2.6537   -2.0471    0.1895 H   0  0  0  0  0  0  0  0  0  0  0  0
    0.8993    0.9999    0.9915 H   0  0  0  0  0  0  0  0  0  0  0  0
    1.0233    0.9702   -0.7711 H   0  0  0  0  0  0  0  0  0  0  0  0
    0.6792   -1.8179    0.0363 H   0  0  0  0  0  0  0  0  0  0  0  0
   -4.6225   -2.6254   -0.4222 H   0  0  0  0  0  0  0  0  0  0  0  0
   -6.5876   -1.1122   -0.5327 H   0  0  0  0  0  0  0  0  0  0  0  0
   -6.2299    1.3442   -0.4232 H   0  0  0  0  0  0  0  0  0  0  0  0
   -3.9839    2.3060   -0.2087 H   0  0  0  0  0  0  0  0  0  0  0  0
   -1.2702    1.4900   -0.0144 H   0  0  0  0  0  0  0  0  0  0  0  0
  1  2  1  0
  2  3  2  0
  3  4  1  0
  4  5  2  0
  5  6  1  0
  5  7  1  0
  7  8  2  0
  8  9  1  0
  9 10  1  0
 10 11  1  0
 11 12  2  0
 12 13  1  0
 13 14  2  0
 14 15  1  0
 15 16  2  0
 16 17  1  0
 17 18  2  0
 18 19  1  0
  8  2  1  0
 19 11  1  0
 18 13  1  0
  1 20  1  0
  3 21  1  0
  4 22  1  0
  7 23  1  0
  9 24  1  0
  9 25  1  0
 10 26  1  0
 14 27  1  0
 15 28  1  0
 16 29  1  0
 17 30  1  0
 19 31  1  0
M  END
>  <Batch_No>  (89) 
OSSK_331359

>  <EC50_nM>  (89) 
ND

>  <Set>  (89) 
Drug-like

>  <Molecular_Weight>  (89) 
273.71758

>  <ALogP>  (89) 
3.229

$$$$
MMV665817
     RDKit          3D

 56 57  0  0  0  0  0  0  0  0999 V2000
   -3.6894    1.6534   -0.6805 C   0  0  0  0  0  0  0  0  0  0  0  0
   -4.0533    0.8014    0.4863 C   0  0  0  0  0  0  0  0  0  0  0  0
   -4.4241    1.7917    1.6135 C   0  0  0  0  0  0  0  0  0  0  0  0
   -5.3492    0.0827    0.1800 C   0  0  0  0  0  0  0  0  0  0  0  0
   -2.9866   -0.0508    1.0543 C   0  0  0  0  0  0  0  0  0  0  0  0
   -2.3487   -1.0709    0.1976 C   0  0  0  0  0  0  0  0  0  0  0  0
   -3.3160   -2.1022   -0.3426 C   0  0  0  0  0  0  0  0  0  0  0  0
   -1.4055   -1.8672    1.1240 C   0  0  0  0  0  0  0  0  0  0  0  0
   -1.5642   -0.6015   -0.9022 N   0  0  0  0  0  0  0  0  0  0  0  0
   -0.9362   -1.7293   -1.6247 C   0  0  0  0  0  0  0  0  0  0  0  0
   -0.1099   -1.1713   -2.7879 C   0  0  0  0  0  0  0  0  0  0  0  0
    0.4999   -2.1927   -3.4969 O   0  0  0  0  0  0  0  0  0  0  0  0
    0.9128   -0.1621   -2.2762 C   0  0  0  0  0  0  0  0  0  0  0  0
    1.8438   -0.7631   -1.4266 O   0  0  0  0  0  0  0  0  0  0  0  0
    2.8538   -0.0093   -0.8599 C   0  0  0  0  0  0  0  0  0  0  0  0
    2.9840    1.3435   -1.1038 C   0  0  0  0  0  0  0  0  0  0  0  0
    3.9996    2.0359   -0.5174 C   0  0  0  0  0  0  0  0  0  0  0  0
    4.9398    1.4684    0.3306 C   0  0  0  0  0  0  0  0  0  0  0  0
    6.0985    2.0157    1.0610 C   0  0  0  0  0  0  0  0  0  0  0  0
    6.3282    0.9881    2.1363 C   0  0  0  0  0  0  0  0  0  0  0  0
    5.8845   -0.3005    1.4855 C   0  0  0  0  0  0  0  0  0  0  0  0
    4.8047    0.1149    0.5711 C   0  0  0  0  0  0  0  0  0  0  0  0
    3.7736   -0.5959   -0.0222 C   0  0  0  0  0  0  0  0  0  0  0  0
   -2.6081    1.9339   -0.7197 H   0  0  0  0  0  0  0  0  0  0  0  0
   -4.0704    1.2731   -1.6691 H   0  0  0  0  0  0  0  0  0  0  0  0
   -4.2033    2.6633   -0.6053 H   0  0  0  0  0  0  0  0  0  0  0  0
   -5.0502    2.5752    1.1338 H   0  0  0  0  0  0  0  0  0  0  0  0
   -3.4829    2.2741    1.9431 H   0  0  0  0  0  0  0  0  0  0  0  0
   -4.9518    1.2419    2.4206 H   0  0  0  0  0  0  0  0  0  0  0  0
   -6.1531    0.8793    0.1690 H   0  0  0  0  0  0  0  0  0  0  0  0
   -5.6255   -0.5748    1.0109 H   0  0  0  0  0  0  0  0  0  0  0  0
   -5.3971   -0.3592   -0.8243 H   0  0  0  0  0  0  0  0  0  0  0  0
   -3.4337   -0.5868    1.9372 H   0  0  0  0  0  0  0  0  0  0  0  0
   -2.2131    0.6043    1.5109 H   0  0  0  0  0  0  0  0  0  0  0  0
   -4.1467   -2.3245    0.3236 H   0  0  0  0  0  0  0  0  0  0  0  0
   -2.7394   -3.0659   -0.4727 H   0  0  0  0  0  0  0  0  0  0  0  0
   -3.6104   -1.8394   -1.3914 H   0  0  0  0  0  0  0  0  0  0  0  0
   -0.4549   -1.3344    1.2919 H   0  0  0  0  0  0  0  0  0  0  0  0
   -1.2666   -2.9012    0.7415 H   0  0  0  0  0  0  0  0  0  0  0  0
   -1.8847   -1.9818    2.1375 H   0  0  0  0  0  0  0  0  0  0  0  0
   -2.2368   -0.2230   -1.6390 H   0  0  0  0  0  0  0  0  0  0  0  0
   -1.6976   -2.3880   -2.0890 H   0  0  0  0  0  0  0  0  0  0  0  0
   -0.2845   -2.3274   -0.9868 H   0  0  0  0  0  0  0  0  0  0  0  0
   -0.7982   -0.6117   -3.4452 H   0  0  0  0  0  0  0  0  0  0  0  0
    1.4374   -2.2444   -3.1444 H   0  0  0  0  0  0  0  0  0  0  0  0
    1.4236    0.2110   -3.2048 H   0  0  0  0  0  0  0  0  0  0  0  0
    0.4072    0.7129   -1.8611 H   0  0  0  0  0  0  0  0  0  0  0  0
    2.2537    1.7928   -1.7647 H   0  0  0  0  0  0  0  0  0  0  0  0
    4.1179    3.1105   -0.7000 H   0  0  0  0  0  0  0  0  0  0  0  0
    5.8917    3.0055    1.5127 H   0  0  0  0  0  0  0  0  0  0  0  0
    6.9915    2.0613    0.3918 H   0  0  0  0  0  0  0  0  0  0  0  0
    5.6880    1.2359    3.0082 H   0  0  0  0  0  0  0  0  0  0  0  0
    7.3969    0.9179    2.4384 H   0  0  0  0  0  0  0  0  0  0  0  0
    5.5192   -1.0213    2.2479 H   0  0  0  0  0  0  0  0  0  0  0  0
    6.7266   -0.7317    0.8896 H   0  0  0  0  0  0  0  0  0  0  0  0
    3.7148   -1.6564    0.2014 H   0  0  0  0  0  0  0  0  0  0  0  0
  1  2  1  0
  2  3  1  0
  2  4  1  0
  2  5  1  0
  5  6  1  0
  6  7  1  0
  6  8  1  0
  6  9  1  0
  9 10  1  0
 10 11  1  0
 11 12  1  0
 11 13  1  0
 13 14  1  0
 14 15  1  0
 15 16  2  0
 16 17  1  0
 17 18  2  0
 18 19  1  0
 19 20  1  0
 20 21  1  0
 21 22  1  0
 22 23  2  0
 23 15  1  0
 22 18  1  0
  1 24  1  0
  1 25  1  0
  1 26  1  0
  3 27  1  0
  3 28  1  0
  3 29  1  0
  4 30  1  0
  4 31  1  0
  4 32  1  0
  5 33  1  0
  5 34  1  0
  7 35  1  0
  7 36  1  0
  7 37  1  0
  8 38  1  0
  8 39  1  0
  8 40  1  0
  9 41  1  0
 10 42  1  0
 10 43  1  0
 11 44  1  0
 12 45  1  0
 13 46  1  0
 13 47  1  0
 16 48  1  0
 17 49  1  0
 19 50  1  0
 19 51  1  0
 20 52  1  0
 20 53  1  0
 21 54  1  0
 21 55  1  0
 23 56  1  0
M  END
>  <Batch_No>  (90) 
OSSK_686933

>  <EC50_nM>  (90) 
ND

>  <Set>  (90) 
Drug-like

>  <Molecular_Weight>  (90) 
319.48151

>  <ALogP>  (90) 
4.331

$$$$
MMV665979
     RDKit          3D

 51 53  0  0  0  0  0  0  0  0999 V2000
    8.6222   -1.4823   -0.7930 F   0  0  0  0  0  0  0  0  0  0  0  0
    7.5364   -0.9959   -1.4886 C   0  0  0  0  0  0  0  0  0  0  0  0
    6.8887   -2.0527   -2.0897 F   0  0  0  0  0  0  0  0  0  0  0  0
    7.9208   -0.1299   -2.5060 F   0  0  0  0  0  0  0  0  0  0  0  0
    6.6201   -0.3066   -0.5463 C   0  0  0  0  0  0  0  0  0  0  0  0
    7.1427    0.7366    0.2083 C   0  0  0  0  0  0  0  0  0  0  0  0
    6.3385    1.4189    1.1041 C   0  0  0  0  0  0  0  0  0  0  0  0
    4.9992    1.0492    1.2414 C   0  0  0  0  0  0  0  0  0  0  0  0
    4.4985    0.0013    0.4745 C   0  0  0  0  0  0  0  0  0  0  0  0
    3.0404   -0.3657    0.6544 C   0  0  0  0  0  0  0  0  0  0  0  0
    2.3383    0.4559   -0.3036 N   0  0  0  0  0  0  0  0  0  0  0  0
    0.9541    0.1668   -0.2836 C   0  0  0  0  0  0  0  0  0  0  0  0
    0.2380    0.4185    1.0205 C   0  0  0  0  0  0  0  0  0  0  0  0
   -1.1244   -0.2427    0.8804 C   0  0  0  0  0  0  0  0  0  0  0  0
   -1.7830   -0.0364   -0.3292 N   0  0  0  0  0  0  0  0  0  0  0  0
   -3.1414    0.2973   -0.2481 C   0  0  0  0  0  0  0  0  0  0  0  0
   -4.0353   -0.8135    0.2549 C   0  0  0  0  0  0  0  0  0  0  0  0
   -5.4351   -0.3291    0.2927 C   0  0  0  0  0  0  0  0  0  0  0  0
   -5.9154    0.2736    1.4351 C   0  0  0  0  0  0  0  0  0  0  0  0
   -7.2255    0.7142    1.4481 C   0  0  0  0  0  0  0  0  0  0  0  0
   -8.0616    0.5657    0.3494 C   0  0  0  0  0  0  0  0  0  0  0  0
   -7.5421   -0.0464   -0.7834 C   0  0  0  0  0  0  0  0  0  0  0  0
   -6.2422   -0.4978   -0.8329 C   0  0  0  0  0  0  0  0  0  0  0  0
   -1.1019    0.1962   -1.5285 C   0  0  0  0  0  0  0  0  0  0  0  0
    0.1713    0.9864   -1.3146 C   0  0  0  0  0  0  0  0  0  0  0  0
    5.2881   -0.6928   -0.4266 C   0  0  0  0  0  0  0  0  0  0  0  0
    8.1723    1.0571    0.1348 H   0  0  0  0  0  0  0  0  0  0  0  0
    6.7581    2.2357    1.6923 H   0  0  0  0  0  0  0  0  0  0  0  0
    4.3592    1.5880    1.9507 H   0  0  0  0  0  0  0  0  0  0  0  0
    2.7429   -0.2102    1.7031 H   0  0  0  0  0  0  0  0  0  0  0  0
    2.9700   -1.4273    0.3323 H   0  0  0  0  0  0  0  0  0  0  0  0
    2.5554    1.4546   -0.2638 H   0  0  0  0  0  0  0  0  0  0  0  0
    0.8138   -0.9211   -0.4998 H   0  0  0  0  0  0  0  0  0  0  0  0
    0.7591   -0.0884    1.8356 H   0  0  0  0  0  0  0  0  0  0  0  0
    0.1287    1.5098    1.2296 H   0  0  0  0  0  0  0  0  0  0  0  0
   -1.7347    0.2149    1.7017 H   0  0  0  0  0  0  0  0  0  0  0  0
   -0.9466   -1.3262    1.0760 H   0  0  0  0  0  0  0  0  0  0  0  0
   -3.5126    0.5056   -1.2948 H   0  0  0  0  0  0  0  0  0  0  0  0
   -3.3306    1.2144    0.3412 H   0  0  0  0  0  0  0  0  0  0  0  0
   -3.7951   -1.1390    1.2887 H   0  0  0  0  0  0  0  0  0  0  0  0
   -3.9283   -1.6885   -0.4061 H   0  0  0  0  0  0  0  0  0  0  0  0
   -5.2399    0.3755    2.2743 H   0  0  0  0  0  0  0  0  0  0  0  0
   -7.5792    1.1838    2.3549 H   0  0  0  0  0  0  0  0  0  0  0  0
   -9.0909    0.9255    0.3960 H   0  0  0  0  0  0  0  0  0  0  0  0
   -8.1955   -0.1612   -1.6394 H   0  0  0  0  0  0  0  0  0  0  0  0
   -5.8843   -0.9677   -1.7369 H   0  0  0  0  0  0  0  0  0  0  0  0
   -0.7663   -0.7410   -2.0515 H   0  0  0  0  0  0  0  0  0  0  0  0
   -1.7618    0.7642   -2.2271 H   0  0  0  0  0  0  0  0  0  0  0  0
    0.7480    1.1309   -2.2386 H   0  0  0  0  0  0  0  0  0  0  0  0
   -0.1152    1.9392   -0.8259 H   0  0  0  0  0  0  0  0  0  0  0  0
    4.8843   -1.5043   -1.0171 H   0  0  0  0  0  0  0  0  0  0  0  0
  1  2  1  0
  2  3  1  0
  2  4  1  0
  2  5  1  0
  5  6  2  0
  6  7  1  0
  7  8  2  0
  8  9  1  0
  9 10  1  0
 10 11  1  0
 11 12  1  0
 12 13  1  0
 13 14  1  0
 14 15  1  0
 15 16  1  0
 16 17  1  0
 17 18  1  0
 18 19  2  0
 19 20  1  0
 20 21  2  0
 21 22  1  0
 22 23  2  0
 15 24  1  0
 24 25  1  0
  9 26  2  0
 26  5  1  0
 25 12  1  0
 23 18  1  0
  6 27  1  0
  7 28  1  0
  8 29  1  0
 10 30  1  0
 10 31  1  0
 11 32  1  0
 12 33  1  0
 13 34  1  0
 13 35  1  0
 14 36  1  0
 14 37  1  0
 16 38  1  0
 16 39  1  0
 17 40  1  0
 17 41  1  0
 19 42  1  0
 20 43  1  0
 21 44  1  0
 22 45  1  0
 23 46  1  0
 24 47  1  0
 24 48  1  0
 25 49  1  0
 25 50  1  0
 26 51  1  0
M  END
>  <Batch_No>  (91) 
5452589

>  <EC50_nM>  (91) 
685

>  <Set>  (91) 
Drug-like

>  <Molecular_Weight>  (91) 
362.4318

>  <ALogP>  (91) 
4.325

$$$$
MMV665928
     RDKit          3D

 43 44  0  0  0  0  0  0  0  0999 V2000
    3.3422   -1.3031   -1.7746 C   0  0  0  0  0  0  0  0  0  0  0  0
    3.5920   -0.0767   -0.9462 C   0  0  0  0  0  0  0  0  0  0  0  0
    2.8000   -0.0043    0.3237 C   0  0  0  0  0  0  0  0  0  0  0  0
    3.1780    1.2860    1.0210 C   0  0  0  0  0  0  0  0  0  0  0  0
    1.3567   -0.0195    0.0560 N   0  0  0  0  0  0  0  0  0  0  0  0
    0.6752    0.0548    1.3071 C   0  0  0  0  0  0  0  0  0  0  0  0
   -0.8167    0.0404    1.2505 C   0  0  0  0  0  0  0  0  0  0  0  0
   -1.2374    0.1337    2.6076 O   0  0  0  0  0  0  0  0  0  0  0  0
   -1.3972   -1.2537    0.7911 C   0  0  0  0  0  0  0  0  0  0  0  0
   -0.9522   -1.9210   -0.3296 C   0  0  0  0  0  0  0  0  0  0  0  0
   -1.5057   -3.1277   -0.7523 C   0  0  0  0  0  0  0  0  0  0  0  0
   -2.5388   -3.7106   -0.0522 C   0  0  0  0  0  0  0  0  0  0  0  0
   -3.2841   -5.2212   -0.5193 Cl  0  0  0  0  0  0  0  0  0  0  0  0
   -3.0001   -3.0616    1.0714 C   0  0  0  0  0  0  0  0  0  0  0  0
   -2.4471   -1.8705    1.4808 C   0  0  0  0  0  0  0  0  0  0  0  0
   -1.4127    1.2128    0.5603 C   0  0  0  0  0  0  0  0  0  0  0  0
   -1.9738    2.2712    1.2865 C   0  0  0  0  0  0  0  0  0  0  0  0
   -2.5349    3.3670    0.6704 C   0  0  0  0  0  0  0  0  0  0  0  0
   -2.5700    3.4724   -0.6968 C   0  0  0  0  0  0  0  0  0  0  0  0
   -3.2799    4.8589   -1.4907 Cl  0  0  0  0  0  0  0  0  0  0  0  0
   -2.0304    2.4554   -1.4343 C   0  0  0  0  0  0  0  0  0  0  0  0
   -1.4623    1.3460   -0.8103 C   0  0  0  0  0  0  0  0  0  0  0  0
    3.7045   -1.0688   -2.8152 H   0  0  0  0  0  0  0  0  0  0  0  0
    2.2753   -1.5144   -1.8833 H   0  0  0  0  0  0  0  0  0  0  0  0
    3.9370   -2.1445   -1.3655 H   0  0  0  0  0  0  0  0  0  0  0  0
    4.6655   -0.0372   -0.6426 H   0  0  0  0  0  0  0  0  0  0  0  0
    3.4166    0.8672   -1.5082 H   0  0  0  0  0  0  0  0  0  0  0  0
    3.0561   -0.8593    0.9999 H   0  0  0  0  0  0  0  0  0  0  0  0
    4.2292    1.5790    0.8010 H   0  0  0  0  0  0  0  0  0  0  0  0
    2.5158    2.0708    0.6207 H   0  0  0  0  0  0  0  0  0  0  0  0
    3.0916    1.1734    2.1233 H   0  0  0  0  0  0  0  0  0  0  0  0
    1.1526    0.7841   -0.5823 H   0  0  0  0  0  0  0  0  0  0  0  0
    0.9842   -0.8308    1.9004 H   0  0  0  0  0  0  0  0  0  0  0  0
    0.9945    0.9618    1.8649 H   0  0  0  0  0  0  0  0  0  0  0  0
   -0.5783    0.6201    3.1501 H   0  0  0  0  0  0  0  0  0  0  0  0
   -0.1551   -1.5367   -0.9240 H   0  0  0  0  0  0  0  0  0  0  0  0
   -1.1225   -3.6199   -1.6437 H   0  0  0  0  0  0  0  0  0  0  0  0
   -3.8236   -3.4862    1.6653 H   0  0  0  0  0  0  0  0  0  0  0  0
   -2.8140   -1.3786    2.3532 H   0  0  0  0  0  0  0  0  0  0  0  0
   -1.9664    2.2273    2.3721 H   0  0  0  0  0  0  0  0  0  0  0  0
   -2.9552    4.1572    1.3108 H   0  0  0  0  0  0  0  0  0  0  0  0
   -2.0434    2.5106   -2.5294 H   0  0  0  0  0  0  0  0  0  0  0  0
   -1.0652    0.5962   -1.4459 H   0  0  0  0  0  0  0  0  0  0  0  0
  1  2  1  0
  2  3  1  0
  3  4  1  0
  3  5  1  0
  5  6  1  0
  6  7  1  0
  7  8  1  0
  7  9  1  0
  9 10  2  0
 10 11  1  0
 11 12  2  0
 12 13  1  0
 12 14  1  0
 14 15  2  0
  7 16  1  0
 16 17  2  0
 17 18  1  0
 18 19  2  0
 19 20  1  0
 19 21  1  0
 21 22  2  0
 15  9  1  0
 22 16  1  0
  1 23  1  0
  1 24  1  0
  1 25  1  0
  2 26  1  0
  2 27  1  0
  3 28  1  0
  4 29  1  0
  4 30  1  0
  4 31  1  0
  5 32  1  0
  6 33  1  0
  6 34  1  0
  8 35  1  0
 10 36  1  0
 11 37  1  0
 14 38  1  0
 15 39  1  0
 17 40  1  0
 18 41  1  0
 21 42  1  0
 22 43  1  0
M  END
>  <Batch_No>  (92) 
1J-343S

>  <EC50_nM>  (92) 
642

>  <Set>  (92) 
Drug-like

>  <Molecular_Weight>  (92) 
338.27144

>  <ALogP>  (92) 
4.875

$$$$
MMV666105
     RDKit          3D

 69 71  0  0  0  0  0  0  0  0999 V2000
   -1.8428    2.5334   -4.5638 C   0  0  0  0  0  0  0  0  0  0  0  0
   -2.1040    1.2275   -4.2371 O   0  0  0  0  0  0  0  0  0  0  0  0
   -2.0501    1.0283   -2.8818 C   0  0  0  0  0  0  0  0  0  0  0  0
   -0.7574    1.3150   -2.2077 C   0  0  0  0  0  0  0  0  0  0  0  0
   -0.8437    1.0472   -0.7914 N   0  0  0  0  0  0  0  0  0  0  0  0
   -0.4792   -0.1815   -0.1436 C   0  0  0  0  0  0  0  0  0  0  0  0
    1.0649   -0.2780   -0.1531 C   0  0  0  0  0  0  0  0  0  0  0  0
    1.7088    0.6404   -0.7222 O   0  0  0  0  0  0  0  0  0  0  0  0
    1.6884   -1.3925    0.4769 N   0  0  0  0  0  0  0  0  0  0  0  0
    3.0956   -1.6107    0.5428 C   0  0  0  0  0  0  0  0  0  0  0  0
    3.8325   -0.7909    1.5064 C   0  0  0  0  0  0  0  0  0  0  0  0
    4.0194   -1.1832    2.8231 C   0  0  0  0  0  0  0  0  0  0  0  0
    4.7246   -0.3979    3.7182 C   0  0  0  0  0  0  0  0  0  0  0  0
    5.2793    0.8204    3.3418 C   0  0  0  0  0  0  0  0  0  0  0  0
    5.9827    1.5910    4.2560 O   0  0  0  0  0  0  0  0  0  0  0  0
    6.5766    2.8291    3.9704 C   0  0  0  0  0  0  0  0  0  0  0  0
    5.0962    1.2151    2.0334 C   0  0  0  0  0  0  0  0  0  0  0  0
    4.3877    0.4219    1.1420 C   0  0  0  0  0  0  0  0  0  0  0  0
   -1.0293   -1.4300   -0.6432 C   0  0  0  0  0  0  0  0  0  0  0  0
   -0.7575   -2.0214   -1.8536 C   0  0  0  0  0  0  0  0  0  0  0  0
   -1.3185   -3.2085   -2.2740 C   0  0  0  0  0  0  0  0  0  0  0  0
   -2.2130   -3.8839   -1.4687 C   0  0  0  0  0  0  0  0  0  0  0  0
   -2.5067   -3.3112   -0.2411 C   0  0  0  0  0  0  0  0  0  0  0  0
   -1.9387   -2.1201    0.1715 C   0  0  0  0  0  0  0  0  0  0  0  0
   -2.8474   -5.1526   -1.8567 C   0  0  0  0  0  0  0  0  0  0  0  0
   -4.3567   -5.0545   -1.8866 C   0  0  0  0  0  0  0  0  0  0  0  0
   -2.4461   -6.2580   -0.9058 C   0  0  0  0  0  0  0  0  0  0  0  0
   -1.2870    2.1027    0.0984 C   0  0  0  0  0  0  0  0  0  0  0  0
   -1.4183    1.8822    1.3462 O   0  0  0  0  0  0  0  0  0  0  0  0
   -1.6050    3.4684   -0.3521 C   0  0  0  0  0  0  0  0  0  0  0  0
   -2.0027    4.2771    0.8030 C   0  0  0  0  0  0  0  0  0  0  0  0
   -1.2337    5.0419    1.6781 C   0  0  0  0  0  0  0  0  0  0  0  0
   -1.8193    5.7001    2.6626 C   0  0  0  0  0  0  0  0  0  0  0  0
   -3.1978    5.6142    2.8041 C   0  0  0  0  0  0  0  0  0  0  0  0
   -3.7091    4.4900    1.4031 S   0  0  0  0  0  0  0  0  0  0  0  0
   -0.8357    2.8447   -4.2558 H   0  0  0  0  0  0  0  0  0  0  0  0
   -2.5520    3.2231   -4.0149 H   0  0  0  0  0  0  0  0  0  0  0  0
   -1.9149    2.7281   -5.6603 H   0  0  0  0  0  0  0  0  0  0  0  0
   -2.4419    0.0157   -2.5908 H   0  0  0  0  0  0  0  0  0  0  0  0
   -2.8444    1.7069   -2.4237 H   0  0  0  0  0  0  0  0  0  0  0  0
    0.1168    0.8346   -2.6919 H   0  0  0  0  0  0  0  0  0  0  0  0
   -0.5576    2.4241   -2.3619 H   0  0  0  0  0  0  0  0  0  0  0  0
   -0.6666   -0.0626    0.9545 H   0  0  0  0  0  0  0  0  0  0  0  0
    1.0298   -2.0870    0.9170 H   0  0  0  0  0  0  0  0  0  0  0  0
    3.4864   -1.4470   -0.5011 H   0  0  0  0  0  0  0  0  0  0  0  0
    3.2715   -2.7054    0.7121 H   0  0  0  0  0  0  0  0  0  0  0  0
    3.5940   -2.1364    3.1459 H   0  0  0  0  0  0  0  0  0  0  0  0
    4.8715   -0.7001    4.7412 H   0  0  0  0  0  0  0  0  0  0  0  0
    5.9084    3.6752    4.1203 H   0  0  0  0  0  0  0  0  0  0  0  0
    7.4784    2.9935    4.6272 H   0  0  0  0  0  0  0  0  0  0  0  0
    7.0090    2.8304    2.9329 H   0  0  0  0  0  0  0  0  0  0  0  0
    5.5227    2.1744    1.7024 H   0  0  0  0  0  0  0  0  0  0  0  0
    4.3036    0.8278    0.1322 H   0  0  0  0  0  0  0  0  0  0  0  0
   -0.0669   -1.5328   -2.5105 H   0  0  0  0  0  0  0  0  0  0  0  0
   -1.0686   -3.6360   -3.2448 H   0  0  0  0  0  0  0  0  0  0  0  0
   -3.2086   -3.8407    0.3916 H   0  0  0  0  0  0  0  0  0  0  0  0
   -2.2122   -1.7332    1.1375 H   0  0  0  0  0  0  0  0  0  0  0  0
   -2.5046   -5.4605   -2.8610 H   0  0  0  0  0  0  0  0  0  0  0  0
   -4.6985   -4.5864   -2.8152 H   0  0  0  0  0  0  0  0  0  0  0  0
   -4.7325   -6.0998   -1.8811 H   0  0  0  0  0  0  0  0  0  0  0  0
   -4.7556   -4.5897   -0.9694 H   0  0  0  0  0  0  0  0  0  0  0  0
   -2.9379   -7.1895   -1.2706 H   0  0  0  0  0  0  0  0  0  0  0  0
   -2.7477   -6.0110    0.1190 H   0  0  0  0  0  0  0  0  0  0  0  0
   -1.3358   -6.3246   -0.9675 H   0  0  0  0  0  0  0  0  0  0  0  0
   -0.6195    3.9073   -0.6984 H   0  0  0  0  0  0  0  0  0  0  0  0
   -2.2708    3.5627   -1.2096 H   0  0  0  0  0  0  0  0  0  0  0  0
   -0.1318    5.0603    1.5006 H   0  0  0  0  0  0  0  0  0  0  0  0
   -1.2657    6.3292    3.3970 H   0  0  0  0  0  0  0  0  0  0  0  0
   -3.9154    6.0340    3.4975 H   0  0  0  0  0  0  0  0  0  0  0  0
  1  2  1  0
  2  3  1  0
  3  4  1  0
  4  5  1  0
  5  6  1  0
  6  7  1  0
  7  8  2  0
  7  9  1  0
  9 10  1  0
 10 11  1  0
 11 12  2  0
 12 13  1  0
 13 14  2  0
 14 15  1  0
 15 16  1  0
 14 17  1  0
 17 18  2  0
  6 19  1  0
 19 20  2  0
 20 21  1  0
 21 22  2  0
 22 23  1  0
 23 24  2  0
 22 25  1  0
 25 26  1  0
 25 27  1  0
  5 28  1  0
 28 29  2  0
 28 30  1  0
 30 31  1  0
 31 32  2  0
 32 33  1  0
 33 34  2  0
 34 35  1  0
 18 11  1  0
 24 19  1  0
 35 31  1  0
  1 36  1  0
  1 37  1  0
  1 38  1  0
  3 39  1  0
  3 40  1  0
  4 41  1  0
  4 42  1  0
  6 43  1  0
  9 44  1  0
 10 45  1  0
 10 46  1  0
 12 47  1  0
 13 48  1  0
 16 49  1  0
 16 50  1  0
 16 51  1  0
 17 52  1  0
 18 53  1  0
 20 54  1  0
 21 55  1  0
 23 56  1  0
 24 57  1  0
 25 58  1  0
 26 59  1  0
 26 60  1  0
 26 61  1  0
 27 62  1  0
 27 63  1  0
 27 64  1  0
 30 65  1  0
 30 66  1  0
 32 67  1  0
 33 68  1  0
 34 69  1  0
M  END
>  <Batch_No>  (93) 
ASN 05580082

>  <EC50_nM>  (93) 
1190

>  <Set>  (93) 
Drug-like

>  <Molecular_Weight>  (93) 
494.64555

>  <ALogP>  (93) 
4.641

$$$$
MMV666072
     RDKit          3D

 55 57  0  0  0  0  0  0  0  0999 V2000
   -8.2480   -2.0878    0.1431 C   0  0  0  0  0  0  0  0  0  0  0  0
   -7.9554   -0.7373    0.2357 O   0  0  0  0  0  0  0  0  0  0  0  0
   -8.0480   -0.0735   -0.9710 C   0  0  0  0  0  0  0  0  0  0  0  0
   -7.1141   -0.6022   -2.0301 C   0  0  0  0  0  0  0  0  0  0  0  0
   -5.7488   -0.4880   -1.5970 N   0  0  0  0  0  0  0  0  0  0  0  0
   -5.1042    0.7324   -1.2712 C   0  0  0  0  0  0  0  0  0  0  0  0
   -5.7706    1.7849   -1.3684 O   0  0  0  0  0  0  0  0  0  0  0  0
   -3.7237    0.8362   -0.8333 C   0  0  0  0  0  0  0  0  0  0  0  0
   -3.2088    2.0826   -0.5475 C   0  0  0  0  0  0  0  0  0  0  0  0
   -1.9228    2.2462   -0.1323 C   0  0  0  0  0  0  0  0  0  0  0  0
   -1.0221    1.1684    0.0382 C   0  0  0  0  0  0  0  0  0  0  0  0
    0.2071    1.4900    0.4519 O   0  0  0  0  0  0  0  0  0  0  0  0
    1.3101    0.7590    0.7199 C   0  0  0  0  0  0  0  0  0  0  0  0
    1.8880    1.0047    2.1120 C   0  0  0  0  0  0  0  0  0  0  0  0
    3.2747    1.5348    2.1134 C   0  0  0  0  0  0  0  0  0  0  0  0
    4.1923    0.8316    1.2671 N   0  0  0  0  0  0  0  0  0  0  0  0
    5.1238   -0.0214    1.9006 C   0  0  0  0  0  0  0  0  0  0  0  0
    5.9939   -0.6532    0.8786 C   0  0  0  0  0  0  0  0  0  0  0  0
    5.7201   -1.8613    0.2789 C   0  0  0  0  0  0  0  0  0  0  0  0
    6.5839   -2.3625   -0.6576 C   0  0  0  0  0  0  0  0  0  0  0  0
    7.7341   -1.7015   -1.0332 C   0  0  0  0  0  0  0  0  0  0  0  0
    8.5976   -2.1993   -1.9671 F   0  0  0  0  0  0  0  0  0  0  0  0
    8.0261   -0.4868   -0.4416 C   0  0  0  0  0  0  0  0  0  0  0  0
    9.1349    0.2330   -0.7493 F   0  0  0  0  0  0  0  0  0  0  0  0
    7.1522    0.0253    0.5091 C   0  0  0  0  0  0  0  0  0  0  0  0
    3.6167    0.3761    0.0348 C   0  0  0  0  0  0  0  0  0  0  0  0
    2.4100    1.2420   -0.2623 C   0  0  0  0  0  0  0  0  0  0  0  0
   -1.5487   -0.0662   -0.2501 C   0  0  0  0  0  0  0  0  0  0  0  0
   -0.6135   -1.5356   -0.1081 Cl  0  0  0  0  0  0  0  0  0  0  0  0
   -2.8745   -0.2345   -0.6782 C   0  0  0  0  0  0  0  0  0  0  0  0
   -9.3024   -2.1785   -0.2435 H   0  0  0  0  0  0  0  0  0  0  0  0
   -7.5801   -2.6168   -0.5491 H   0  0  0  0  0  0  0  0  0  0  0  0
   -8.2422   -2.5819    1.1410 H   0  0  0  0  0  0  0  0  0  0  0  0
   -7.8720    0.9987   -0.7810 H   0  0  0  0  0  0  0  0  0  0  0  0
   -9.0813   -0.2543   -1.3734 H   0  0  0  0  0  0  0  0  0  0  0  0
   -7.3398   -1.6369   -2.3027 H   0  0  0  0  0  0  0  0  0  0  0  0
   -7.3105   -0.0066   -2.9596 H   0  0  0  0  0  0  0  0  0  0  0  0
   -5.1707   -1.3595   -1.5092 H   0  0  0  0  0  0  0  0  0  0  0  0
   -3.8413    2.9785   -0.6530 H   0  0  0  0  0  0  0  0  0  0  0  0
   -1.5815    3.2722    0.0772 H   0  0  0  0  0  0  0  0  0  0  0  0
    1.3099   -0.3248    0.5996 H   0  0  0  0  0  0  0  0  0  0  0  0
    1.2327    1.7994    2.5702 H   0  0  0  0  0  0  0  0  0  0  0  0
    1.7306    0.1228    2.7667 H   0  0  0  0  0  0  0  0  0  0  0  0
    3.2753    2.6050    1.8111 H   0  0  0  0  0  0  0  0  0  0  0  0
    3.6986    1.4932    3.1404 H   0  0  0  0  0  0  0  0  0  0  0  0
    4.6342   -0.8114    2.5132 H   0  0  0  0  0  0  0  0  0  0  0  0
    5.7700    0.6116    2.5766 H   0  0  0  0  0  0  0  0  0  0  0  0
    4.8423   -2.4027    0.5451 H   0  0  0  0  0  0  0  0  0  0  0  0
    6.3343   -3.3237   -1.1124 H   0  0  0  0  0  0  0  0  0  0  0  0
    7.3783    0.9830    0.9784 H   0  0  0  0  0  0  0  0  0  0  0  0
    3.2967   -0.6664    0.0105 H   0  0  0  0  0  0  0  0  0  0  0  0
    4.3584    0.5460   -0.7728 H   0  0  0  0  0  0  0  0  0  0  0  0
    2.0642    0.9881   -1.2812 H   0  0  0  0  0  0  0  0  0  0  0  0
    2.5872    2.3055   -0.0833 H   0  0  0  0  0  0  0  0  0  0  0  0
   -3.2531   -1.2056   -0.8941 H   0  0  0  0  0  0  0  0  0  0  0  0
  1  2  1  0
  2  3  1  0
  3  4  1  0
  4  5  1  0
  5  6  1  0
  6  7  2  0
  6  8  1  0
  8  9  2  0
  9 10  1  0
 10 11  2  0
 11 12  1  0
 12 13  1  0
 13 14  1  0
 14 15  1  0
 15 16  1  0
 16 17  1  0
 17 18  1  0
 18 19  2  0
 19 20  1  0
 20 21  2  0
 21 22  1  0
 21 23  1  0
 23 24  1  0
 23 25  2  0
 16 26  1  0
 26 27  1  0
 11 28  1  0
 28 29  1  0
 28 30  2  0
 30  8  1  0
 27 13  1  0
 25 18  1  0
  1 31  1  0
  1 32  1  0
  1 33  1  0
  3 34  1  0
  3 35  1  0
  4 36  1  0
  4 37  1  0
  5 38  1  0
  9 39  1  0
 10 40  1  0
 13 41  1  0
 14 42  1  0
 14 43  1  0
 15 44  1  0
 15 45  1  0
 17 46  1  0
 17 47  1  0
 19 48  1  0
 20 49  1  0
 25 50  1  0
 26 51  1  0
 26 52  1  0
 27 53  1  0
 27 54  1  0
 30 55  1  0
M  END
>  <Batch_No>  (94) 
33404729

>  <EC50_nM>  (94) 
ND

>  <Set>  (94) 
Drug-like

>  <Molecular_Weight>  (94) 
438.8953

>  <ALogP>  (94) 
3.66

$$$$
MMV000653
     RDKit          3D

 63 66  0  0  0  0  0  0  0  0999 V2000
    4.0579   -2.7081   -1.2941 C   0  0  0  0  0  0  0  0  0  0  0  0
    4.1068   -1.3727   -1.9544 C   0  0  0  0  0  0  0  0  0  0  0  0
    3.6625   -0.3705   -1.0842 O   0  0  0  0  0  0  0  0  0  0  0  0
    4.3197   -0.1282    0.0993 C   0  0  0  0  0  0  0  0  0  0  0  0
    5.4335   -0.7962    0.5431 C   0  0  0  0  0  0  0  0  0  0  0  0
    6.0665   -0.5220    1.7406 C   0  0  0  0  0  0  0  0  0  0  0  0
    5.5846    0.4684    2.5620 C   0  0  0  0  0  0  0  0  0  0  0  0
    4.4577    1.1605    2.1361 C   0  0  0  0  0  0  0  0  0  0  0  0
    3.8337    0.8785    0.9388 C   0  0  0  0  0  0  0  0  0  0  0  0
    2.6504    1.6292    0.5226 C   0  0  0  0  0  0  0  0  0  0  0  0
    1.4361    0.8218    0.7121 N   0  0  0  0  0  0  0  0  0  0  0  0
    0.2177    1.4456    0.3443 C   0  0  0  0  0  0  0  0  0  0  0  0
    0.3194    2.6326   -0.1125 O   0  0  0  0  0  0  0  0  0  0  0  0
   -1.0526    0.7529    0.4861 C   0  0  0  0  0  0  0  0  0  0  0  0
   -2.2262    1.3978   -0.2218 C   0  0  0  0  0  0  0  0  0  0  0  0
   -3.2754    0.4053   -0.2117 N   0  0  0  0  0  0  0  0  0  0  0  0
   -3.8492   -0.2526   -1.3333 C   0  0  0  0  0  0  0  0  0  0  0  0
   -3.1774   -1.5804   -1.6329 C   0  0  0  0  0  0  0  0  0  0  0  0
   -3.3177   -2.5215   -0.4307 C   0  0  0  0  0  0  0  0  0  0  0  0
   -3.7613   -2.2154   -2.8686 C   0  0  0  0  0  0  0  0  0  0  0  0
   -3.8000    0.0675    1.0941 C   0  0  0  0  0  0  0  0  0  0  0  0
   -4.9883   -0.2612    1.2890 O   0  0  0  0  0  0  0  0  0  0  0  0
   -2.7964    0.1444    2.1812 C   0  0  0  0  0  0  0  0  0  0  0  0
   -3.2105   -0.1118    3.4680 C   0  0  0  0  0  0  0  0  0  0  0  0
   -2.3486   -0.0178    4.5397 C   0  0  0  0  0  0  0  0  0  0  0  0
   -1.0469    0.3452    4.2734 C   0  0  0  0  0  0  0  0  0  0  0  0
   -0.6336    0.6022    2.9728 C   0  0  0  0  0  0  0  0  0  0  0  0
   -1.4740    0.5140    1.8876 C   0  0  0  0  0  0  0  0  0  0  0  0
   -1.9240    2.0393   -1.4791 C   0  0  0  0  0  0  0  0  0  0  0  0
   -1.6881    1.6280   -2.7520 C   0  0  0  0  0  0  0  0  0  0  0  0
   -1.4366    2.4889   -3.7187 C   0  0  0  0  0  0  0  0  0  0  0  0
   -1.4161    3.8531   -3.4074 C   0  0  0  0  0  0  0  0  0  0  0  0
   -1.7928    3.8526   -1.5715 S   0  0  0  0  0  0  0  0  0  0  0  0
    3.7508   -2.6565   -0.2131 H   0  0  0  0  0  0  0  0  0  0  0  0
    3.2352   -3.3003   -1.7930 H   0  0  0  0  0  0  0  0  0  0  0  0
    4.9517   -3.3218   -1.3953 H   0  0  0  0  0  0  0  0  0  0  0  0
    5.1783   -1.1378   -2.2232 H   0  0  0  0  0  0  0  0  0  0  0  0
    3.5663   -1.3699   -2.9279 H   0  0  0  0  0  0  0  0  0  0  0  0
    5.8656   -1.5809   -0.0570 H   0  0  0  0  0  0  0  0  0  0  0  0
    6.9456   -1.0610    2.0744 H   0  0  0  0  0  0  0  0  0  0  0  0
    6.0353    0.7178    3.4931 H   0  0  0  0  0  0  0  0  0  0  0  0
    4.0492    1.9500    2.7599 H   0  0  0  0  0  0  0  0  0  0  0  0
    2.7789    1.8976   -0.5454 H   0  0  0  0  0  0  0  0  0  0  0  0
    2.5132    2.5805    1.0731 H   0  0  0  0  0  0  0  0  0  0  0  0
    1.5228   -0.1424    1.0860 H   0  0  0  0  0  0  0  0  0  0  0  0
   -0.9795   -0.2801    0.0066 H   0  0  0  0  0  0  0  0  0  0  0  0
   -2.5544    2.2066    0.5046 H   0  0  0  0  0  0  0  0  0  0  0  0
   -3.9629    0.3609   -2.2375 H   0  0  0  0  0  0  0  0  0  0  0  0
   -4.9123   -0.5399   -1.0670 H   0  0  0  0  0  0  0  0  0  0  0  0
   -2.0985   -1.4419   -1.7690 H   0  0  0  0  0  0  0  0  0  0  0  0
   -2.9560   -3.5274   -0.7284 H   0  0  0  0  0  0  0  0  0  0  0  0
   -4.3526   -2.5714   -0.0548 H   0  0  0  0  0  0  0  0  0  0  0  0
   -2.6685   -2.1811    0.3963 H   0  0  0  0  0  0  0  0  0  0  0  0
   -4.8694   -2.2790   -2.7888 H   0  0  0  0  0  0  0  0  0  0  0  0
   -3.5076   -1.5293   -3.7158 H   0  0  0  0  0  0  0  0  0  0  0  0
   -3.2956   -3.1864   -3.0468 H   0  0  0  0  0  0  0  0  0  0  0  0
   -4.2518   -0.3987    3.6533 H   0  0  0  0  0  0  0  0  0  0  0  0
   -2.7413   -0.2319    5.5116 H   0  0  0  0  0  0  0  0  0  0  0  0
   -0.3762    0.4177    5.1186 H   0  0  0  0  0  0  0  0  0  0  0  0
    0.3978    0.8874    2.8566 H   0  0  0  0  0  0  0  0  0  0  0  0
   -1.7072    0.5154   -2.9626 H   0  0  0  0  0  0  0  0  0  0  0  0
   -1.2370    2.2102   -4.7759 H   0  0  0  0  0  0  0  0  0  0  0  0
   -1.2507    4.7243   -3.9507 H   0  0  0  0  0  0  0  0  0  0  0  0
  1  2  1  0
  2  3  1  0
  3  4  1  0
  4  5  2  0
  5  6  1  0
  6  7  2  0
  7  8  1  0
  8  9  2  0
  9 10  1  0
 10 11  1  0
 11 12  1  0
 12 13  2  0
 12 14  1  0
 14 15  1  0
 15 16  1  0
 16 17  1  0
 17 18  1  0
 18 19  1  0
 18 20  1  0
 16 21  1  0
 21 22  2  0
 21 23  1  0
 23 24  2  0
 24 25  1  0
 25 26  2  0
 26 27  1  0
 27 28  2  0
 15 29  1  0
 29 30  2  0
 30 31  1  0
 31 32  2  0
 32 33  1  0
  9  4  1  0
 28 14  1  0
 28 23  1  0
 33 29  1  0
  1 34  1  0
  1 35  1  0
  1 36  1  0
  2 37  1  0
  2 38  1  0
  5 39  1  0
  6 40  1  0
  7 41  1  0
  8 42  1  0
 10 43  1  0
 10 44  1  0
 11 45  1  0
 14 46  1  0
 15 47  1  0
 17 48  1  0
 17 49  1  0
 18 50  1  0
 19 51  1  0
 19 52  1  0
 19 53  1  0
 20 54  1  0
 20 55  1  0
 20 56  1  0
 24 57  1  0
 25 58  1  0
 26 59  1  0
 27 60  1  0
 30 61  1  0
 31 62  1  0
 32 63  1  0
M  END
>  <Batch_No>  (95) 
E456-0851

>  <EC50_nM>  (95) 
1320

>  <Set>  (95) 
Drug-like

>  <Molecular_Weight>  (95) 
462.6037

>  <ALogP>  (95) 
4.783

$$$$
MMV000620
     RDKit          3D

 50 52  0  0  0  0  0  0  0  0999 V2000
    1.6994   -0.7887    2.0048 C   0  0  0  0  0  0  0  0  0  0  0  0
    1.9500   -0.3854    0.5848 C   0  0  0  0  0  0  0  0  0  0  0  0
    2.8207   -1.3460    0.0253 O   0  0  0  0  0  0  0  0  0  0  0  0
    0.6581   -0.3640   -0.2643 C   0  0  0  0  0  0  0  0  0  0  0  0
   -0.3364    0.5728    0.2562 C   0  0  0  0  0  0  0  0  0  0  0  0
   -1.5718    0.7453   -0.4471 N   0  0  0  0  0  0  0  0  0  0  0  0
   -2.4397   -0.3814   -0.4339 C   0  0  0  0  0  0  0  0  0  0  0  0
   -3.8068   -0.0509   -1.0093 C   0  0  0  0  0  0  0  0  0  0  0  0
   -4.4569    1.0557   -0.2221 C   0  0  0  0  0  0  0  0  0  0  0  0
   -3.5309    2.2631   -0.3846 C   0  0  0  0  0  0  0  0  0  0  0  0
   -2.2304    1.8707    0.2224 C   0  0  0  0  0  0  0  0  0  0  0  0
    0.2559   -1.7839   -0.4067 C   0  0  0  0  0  0  0  0  0  0  0  0
   -0.3154   -2.5149    0.6316 C   0  0  0  0  0  0  0  0  0  0  0  0
   -0.6517   -3.8369    0.4450 C   0  0  0  0  0  0  0  0  0  0  0  0
   -0.4480   -4.4858   -0.7405 C   0  0  0  0  0  0  0  0  0  0  0  0
    0.1139   -3.7861   -1.7799 C   0  0  0  0  0  0  0  0  0  0  0  0
    0.4584   -2.4628   -1.6150 C   0  0  0  0  0  0  0  0  0  0  0  0
    2.6200    0.9135    0.4229 C   0  0  0  0  0  0  0  0  0  0  0  0
    2.9103    1.7868    1.4367 C   0  0  0  0  0  0  0  0  0  0  0  0
    3.5663    3.0044    1.2223 C   0  0  0  0  0  0  0  0  0  0  0  0
    3.9444    3.3595   -0.0492 C   0  0  0  0  0  0  0  0  0  0  0  0
    4.7736    4.8702   -0.3991 Cl  0  0  0  0  0  0  0  0  0  0  0  0
    3.6626    2.4980   -1.0796 C   0  0  0  0  0  0  0  0  0  0  0  0
    3.0091    1.2887   -0.8537 C   0  0  0  0  0  0  0  0  0  0  0  0
    0.8364   -0.3453    2.4887 H   0  0  0  0  0  0  0  0  0  0  0  0
    2.5946   -0.4368    2.5868 H   0  0  0  0  0  0  0  0  0  0  0  0
    1.7717   -1.9016    2.0711 H   0  0  0  0  0  0  0  0  0  0  0  0
    3.6619   -1.2860    0.5518 H   0  0  0  0  0  0  0  0  0  0  0  0
    1.0121   -0.0229   -1.2588 H   0  0  0  0  0  0  0  0  0  0  0  0
    0.1467    1.6011    0.2516 H   0  0  0  0  0  0  0  0  0  0  0  0
   -0.6047    0.4388    1.3293 H   0  0  0  0  0  0  0  0  0  0  0  0
   -2.5770   -0.7358    0.6014 H   0  0  0  0  0  0  0  0  0  0  0  0
   -2.0731   -1.2042   -1.1095 H   0  0  0  0  0  0  0  0  0  0  0  0
   -4.4420   -0.9487   -0.9524 H   0  0  0  0  0  0  0  0  0  0  0  0
   -3.6940    0.2934   -2.0570 H   0  0  0  0  0  0  0  0  0  0  0  0
   -5.4270    1.3353   -0.6516 H   0  0  0  0  0  0  0  0  0  0  0  0
   -4.5876    0.8013    0.8332 H   0  0  0  0  0  0  0  0  0  0  0  0
   -3.4933    2.5860   -1.4230 H   0  0  0  0  0  0  0  0  0  0  0  0
   -3.9436    3.0832    0.2474 H   0  0  0  0  0  0  0  0  0  0  0  0
   -2.4744    1.4646    1.2485 H   0  0  0  0  0  0  0  0  0  0  0  0
   -1.4839    2.6775    0.3019 H   0  0  0  0  0  0  0  0  0  0  0  0
   -0.5134   -2.0787    1.5743 H   0  0  0  0  0  0  0  0  0  0  0  0
   -1.1006   -4.3899    1.2803 H   0  0  0  0  0  0  0  0  0  0  0  0
   -0.7002   -5.5184   -0.9193 H   0  0  0  0  0  0  0  0  0  0  0  0
    0.3046   -4.2389   -2.7530 H   0  0  0  0  0  0  0  0  0  0  0  0
    0.8999   -1.9332   -2.4501 H   0  0  0  0  0  0  0  0  0  0  0  0
    2.6323    1.5592    2.4504 H   0  0  0  0  0  0  0  0  0  0  0  0
    3.7936    3.6881    2.0202 H   0  0  0  0  0  0  0  0  0  0  0  0
    3.9669    2.7848   -2.0969 H   0  0  0  0  0  0  0  0  0  0  0  0
    2.8391    0.6851   -1.7320 H   0  0  0  0  0  0  0  0  0  0  0  0
  1  2  1  0
  2  3  1  0
  2  4  1  0
  4  5  1  0
  5  6  1  0
  6  7  1  0
  7  8  1  0
  8  9  1  0
  9 10  1  0
 10 11  1  0
  4 12  1  0
 12 13  2  0
 13 14  1  0
 14 15  2  0
 15 16  1  0
 16 17  2  0
  2 18  1  0
 18 19  2  0
 19 20  1  0
 20 21  2  0
 21 22  1  0
 21 23  1  0
 23 24  2  0
 11  6  1  0
 17 12  1  0
 24 18  1  0
  1 25  1  0
  1 26  1  0
  1 27  1  0
  3 28  1  0
  4 29  1  0
  5 30  1  0
  5 31  1  0
  7 32  1  0
  7 33  1  0
  8 34  1  0
  8 35  1  0
  9 36  1  0
  9 37  1  0
 10 38  1  0
 10 39  1  0
 11 40  1  0
 11 41  1  0
 13 42  1  0
 14 43  1  0
 15 44  1  0
 16 45  1  0
 17 46  1  0
 19 47  1  0
 20 48  1  0
 23 49  1  0
 24 50  1  0
M  END
>  <Batch_No>  (96) 
D170-0309

>  <EC50_nM>  (96) 
ND

>  <Set>  (96) 
Drug-like

>  <Molecular_Weight>  (96) 
343.89024

>  <ALogP>  (96) 
4.722

$$$$
MMV665909
     RDKit          3D

 31 33  0  0  0  0  0  0  0  0999 V2000
   -2.8323    2.7244    0.3792 Br  0  0  0  0  0  0  0  0  0  0  0  0
   -4.0473    1.2439    0.5739 C   0  0  0  0  0  0  0  0  0  0  0  0
   -5.2819    1.4251    1.1956 C   0  0  0  0  0  0  0  0  0  0  0  0
   -6.1473    0.3448    1.3291 C   0  0  0  0  0  0  0  0  0  0  0  0
   -5.7814   -0.8927    0.8473 C   0  0  0  0  0  0  0  0  0  0  0  0
   -4.5508   -1.0766    0.2267 C   0  0  0  0  0  0  0  0  0  0  0  0
   -3.6879   -0.0027    0.0934 C   0  0  0  0  0  0  0  0  0  0  0  0
   -2.3972   -0.1496   -0.5438 C   0  0  0  0  0  0  0  0  0  0  0  0
   -2.3128   -0.4251   -1.7835 O   0  0  0  0  0  0  0  0  0  0  0  0
   -1.1955    0.0098    0.1983 N   0  0  0  0  0  0  0  0  0  0  0  0
    0.1003   -0.1192   -0.3537 C   0  0  0  0  0  0  0  0  0  0  0  0
    1.2500   -0.0609   -0.0732 N   0  0  0  0  0  0  0  0  0  0  0  0
    2.3047   -0.2289   -0.8063 C   0  0  0  0  0  0  0  0  0  0  0  0
    2.0057   -0.5294   -2.1548 C   0  0  0  0  0  0  0  0  0  0  0  0
    0.2416   -0.5320   -2.1964 S   0  0  0  0  0  0  0  0  0  0  0  0
    3.6951   -0.1244   -0.3191 C   0  0  0  0  0  0  0  0  0  0  0  0
    4.7587   -0.3156   -1.1681 C   0  0  0  0  0  0  0  0  0  0  0  0
    6.0701   -0.2190   -0.7261 C   0  0  0  0  0  0  0  0  0  0  0  0
    6.3143    0.0771    0.6042 C   0  0  0  0  0  0  0  0  0  0  0  0
    5.2342    0.2669    1.4461 C   0  0  0  0  0  0  0  0  0  0  0  0
    3.9861    0.1619    0.9643 N   0  0  0  0  0  0  0  0  0  0  0  0
   -5.5462    2.4159    1.5656 H   0  0  0  0  0  0  0  0  0  0  0  0
   -7.0962    0.5284    1.8174 H   0  0  0  0  0  0  0  0  0  0  0  0
   -6.4770   -1.7168    0.9664 H   0  0  0  0  0  0  0  0  0  0  0  0
   -4.2688   -2.0597   -0.1519 H   0  0  0  0  0  0  0  0  0  0  0  0
   -1.2731    0.2324    1.1942 H   0  0  0  0  0  0  0  0  0  0  0  0
    2.7027   -0.7062   -2.9314 H   0  0  0  0  0  0  0  0  0  0  0  0
    4.6107   -0.5469   -2.2131 H   0  0  0  0  0  0  0  0  0  0  0  0
    6.8803   -0.3753   -1.4161 H   0  0  0  0  0  0  0  0  0  0  0  0
    7.3266    0.1514    0.9451 H   0  0  0  0  0  0  0  0  0  0  0  0
    5.4144    0.4989    2.4906 H   0  0  0  0  0  0  0  0  0  0  0  0
  1  2  1  0
  2  3  2  0
  3  4  1  0
  4  5  2  0
  5  6  1  0
  6  7  2  0
  7  8  1  0
  8  9  2  0
  8 10  1  0
 10 11  1  0
 11 12  2  0
 12 13  1  0
 13 14  2  0
 14 15  1  0
 13 16  1  0
 16 17  2  0
 17 18  1  0
 18 19  2  0
 19 20  1  0
 20 21  2  0
  7  2  1  0
 15 11  1  0
 21 16  1  0
  3 22  1  0
  4 23  1  0
  5 24  1  0
  6 25  1  0
 10 26  1  0
 14 27  1  0
 17 28  1  0
 18 29  1  0
 19 30  1  0
 20 31  1  0
M  END
>  <Batch_No>  (97) 
F0447-0250

>  <EC50_nM>  (97) 
1360

>  <Set>  (97) 
Drug-like

>  <Molecular_Weight>  (97) 
360.2284

>  <ALogP>  (97) 
3.585

$$$$
MMV665940
     RDKit          3D

 37 39  0  0  0  0  0  0  0  0999 V2000
   -6.6280   -0.0417   -1.2598 C   0  0  0  0  0  0  0  0  0  0  0  0
   -6.5871   -0.8196    0.0257 C   0  0  0  0  0  0  0  0  0  0  0  0
   -5.5479   -0.3453    0.8533 O   0  0  0  0  0  0  0  0  0  0  0  0
   -4.2109   -0.3455    0.5252 C   0  0  0  0  0  0  0  0  0  0  0  0
   -3.3264    0.1612    1.4546 C   0  0  0  0  0  0  0  0  0  0  0  0
   -1.9742    0.1865    1.1812 C   0  0  0  0  0  0  0  0  0  0  0  0
   -1.4456   -0.2809   -0.0050 C   0  0  0  0  0  0  0  0  0  0  0  0
   -0.0171   -0.2586   -0.3040 C   0  0  0  0  0  0  0  0  0  0  0  0
    0.8841    0.2122    0.5403 C   0  0  0  0  0  0  0  0  0  0  0  0
    2.3148    0.2020    0.1670 C   0  0  0  0  0  0  0  0  0  0  0  0
    2.6684   -0.2869   -1.0256 N   0  0  0  0  0  0  0  0  0  0  0  0
    3.9310   -0.3322   -1.4369 C   0  0  0  0  0  0  0  0  0  0  0  0
    4.2391   -0.8019   -2.5748 O   0  0  0  0  0  0  0  0  0  0  0  0
    4.9226    0.1444   -0.6014 C   0  0  0  0  0  0  0  0  0  0  0  0
    6.2520    0.1382   -0.9406 C   0  0  0  0  0  0  0  0  0  0  0  0
    7.2282    0.6102   -0.1117 C   0  0  0  0  0  0  0  0  0  0  0  0
    6.8389    1.1118    1.1183 C   0  0  0  0  0  0  0  0  0  0  0  0
    5.4988    1.1212    1.4675 C   0  0  0  0  0  0  0  0  0  0  0  0
    4.5205    0.6405    0.6194 C   0  0  0  0  0  0  0  0  0  0  0  0
    3.2441    0.6574    0.9699 O   0  0  0  0  0  0  0  0  0  0  0  0
   -2.3446   -0.7846   -0.9240 C   0  0  0  0  0  0  0  0  0  0  0  0
   -3.6937   -0.8140   -0.6605 C   0  0  0  0  0  0  0  0  0  0  0  0
   -7.5608    0.5884   -1.3308 H   0  0  0  0  0  0  0  0  0  0  0  0
   -6.5965   -0.7684   -2.0978 H   0  0  0  0  0  0  0  0  0  0  0  0
   -5.7976    0.6833   -1.3236 H   0  0  0  0  0  0  0  0  0  0  0  0
   -6.4548   -1.9213   -0.1678 H   0  0  0  0  0  0  0  0  0  0  0  0
   -7.5574   -0.7366    0.5317 H   0  0  0  0  0  0  0  0  0  0  0  0
   -3.6892    0.5391    2.3980 H   0  0  0  0  0  0  0  0  0  0  0  0
   -1.3316    0.5941    1.9459 H   0  0  0  0  0  0  0  0  0  0  0  0
    0.3125   -0.6412   -1.2500 H   0  0  0  0  0  0  0  0  0  0  0  0
    0.6488    0.6176    1.5148 H   0  0  0  0  0  0  0  0  0  0  0  0
    6.5193   -0.2581   -1.9026 H   0  0  0  0  0  0  0  0  0  0  0  0
    8.2811    0.5935   -0.4072 H   0  0  0  0  0  0  0  0  0  0  0  0
    7.5682    1.4980    1.8136 H   0  0  0  0  0  0  0  0  0  0  0  0
    5.2109    1.5226    2.4460 H   0  0  0  0  0  0  0  0  0  0  0  0
   -1.9666   -1.1672   -1.8816 H   0  0  0  0  0  0  0  0  0  0  0  0
   -4.3533   -1.2183   -1.4072 H   0  0  0  0  0  0  0  0  0  0  0  0
  1  2  1  0
  2  3  1  0
  3  4  1  0
  4  5  2  0
  5  6  1  0
  6  7  2  0
  7  8  1  0
  8  9  2  3
  9 10  1  0
 10 11  2  0
 11 12  1  0
 12 13  2  0
 12 14  1  0
 14 15  2  0
 15 16  1  0
 16 17  2  0
 17 18  1  0
 18 19  2  0
 19 20  1  0
  7 21  1  0
 21 22  2  0
 22  4  1  0
 20 10  1  0
 19 14  1  0
  1 23  1  0
  1 24  1  0
  1 25  1  0
  2 26  1  0
  2 27  1  0
  5 28  1  0
  6 29  1  0
  8 30  1  0
  9 31  1  0
 15 32  1  0
 16 33  1  0
 17 34  1  0
 18 35  1  0
 21 36  1  0
 22 37  1  0
M  END
>  <Batch_No>  (98) 
STK860361

>  <EC50_nM>  (98) 
560

>  <Set>  (98) 
Drug-like

>  <Molecular_Weight>  (98) 
293.3166

>  <ALogP>  (98) 
3.941

$$$$
MMV665891
     RDKit          3D

 35 38  0  0  0  0  0  0  0  0999 V2000
   -6.4521   -0.3058    0.2321 C   0  0  0  0  0  0  0  0  0  0  0  0
   -5.8784    0.1015   -0.9547 C   0  0  0  0  0  0  0  0  0  0  0  0
   -4.4923    0.1774   -1.0064 C   0  0  0  0  0  0  0  0  0  0  0  0
   -3.7197   -0.1473    0.1031 C   0  0  0  0  0  0  0  0  0  0  0  0
   -4.3070   -0.5573    1.2971 C   0  0  0  0  0  0  0  0  0  0  0  0
   -5.6984   -0.6263    1.3258 C   0  0  0  0  0  0  0  0  0  0  0  0
   -2.2514   -0.0714    0.0692 C   0  0  0  0  0  0  0  0  0  0  0  0
   -1.6010    0.8638   -0.7079 C   0  0  0  0  0  0  0  0  0  0  0  0
   -0.2266    0.9748   -0.7715 C   0  0  0  0  0  0  0  0  0  0  0  0
    0.5113    0.0742    0.0071 C   0  0  0  0  0  0  0  0  0  0  0  0
   -0.1402   -0.8588    0.7821 C   0  0  0  0  0  0  0  0  0  0  0  0
   -1.5161   -0.9588    0.8362 C   0  0  0  0  0  0  0  0  0  0  0  0
    1.9689    0.1246   -0.0016 C   0  0  0  0  0  0  0  0  0  0  0  0
    2.7080    1.0010   -0.7271 N   0  0  0  0  0  0  0  0  0  0  0  0
    4.0148    0.7976   -0.5239 C   0  0  0  0  0  0  0  0  0  0  0  0
    5.1847    1.3487   -0.9637 C   0  0  0  0  0  0  0  0  0  0  0  0
    6.4361    0.9421   -0.5899 C   0  0  0  0  0  0  0  0  0  0  0  0
    6.5088   -0.1181    0.3106 C   0  0  0  0  0  0  0  0  0  0  0  0
    5.3518   -0.7089    0.7844 C   0  0  0  0  0  0  0  0  0  0  0  0
    4.1017   -0.2573    0.3723 C   0  0  0  0  0  0  0  0  0  0  0  0
    2.8452   -0.6596    0.6837 N   0  0  0  0  0  0  0  0  0  0  0  0
   -7.5466   -0.3641    0.2678 H   0  0  0  0  0  0  0  0  0  0  0  0
   -6.4639    0.3571   -1.8265 H   0  0  0  0  0  0  0  0  0  0  0  0
   -3.9669    0.4823   -1.8837 H   0  0  0  0  0  0  0  0  0  0  0  0
   -3.7363   -0.8154    2.1739 H   0  0  0  0  0  0  0  0  0  0  0  0
   -6.1610   -0.9449    2.2514 H   0  0  0  0  0  0  0  0  0  0  0  0
   -2.1715    1.5640   -1.3133 H   0  0  0  0  0  0  0  0  0  0  0  0
    0.2804    1.7042   -1.3771 H   0  0  0  0  0  0  0  0  0  0  0  0
    0.4544   -1.5466    1.3771 H   0  0  0  0  0  0  0  0  0  0  0  0
   -2.0372   -1.6896    1.4426 H   0  0  0  0  0  0  0  0  0  0  0  0
    5.0956    2.1801   -1.6707 H   0  0  0  0  0  0  0  0  0  0  0  0
    7.3608    1.3661   -0.9275 H   0  0  0  0  0  0  0  0  0  0  0  0
    7.5045   -0.4629    0.6256 H   0  0  0  0  0  0  0  0  0  0  0  0
    5.4547   -1.5243    1.4787 H   0  0  0  0  0  0  0  0  0  0  0  0
    2.5849   -1.4422    1.3408 H   0  0  0  0  0  0  0  0  0  0  0  0
  1  2  2  0
  2  3  1  0
  3  4  2  0
  4  5  1  0
  5  6  2  0
  4  7  1  0
  7  8  2  0
  8  9  1  0
  9 10  2  0
 10 11  1  0
 11 12  2  0
 10 13  1  0
 13 14  2  0
 14 15  1  0
 15 16  2  0
 16 17  1  0
 17 18  2  0
 18 19  1  0
 19 20  2  0
 20 21  1  0
  6  1  1  0
 12  7  1  0
 21 13  1  0
 20 15  1  0
  1 22  1  0
  2 23  1  0
  3 24  1  0
  5 25  1  0
  6 26  1  0
  8 27  1  0
  9 28  1  0
 11 29  1  0
 12 30  1  0
 16 31  1  0
 17 32  1  0
 18 33  1  0
 19 34  1  0
 21 35  1  0
M  END
>  <Batch_No>  (99) 
OSSK_362093

>  <EC50_nM>  (99) 
1070

>  <Set>  (99) 
Drug-like

>  <Molecular_Weight>  (99) 
270.32786

>  <ALogP>  (99) 
4.789

$$$$
MMV665899
     RDKit          3D

 38 40  0  0  0  0  0  0  0  0999 V2000
   -2.2297   -0.9868    2.8377 F   0  0  0  0  0  0  0  0  0  0  0  0
   -2.1402   -1.7888    1.7390 C   0  0  0  0  0  0  0  0  0  0  0  0
   -2.2942   -3.1569    1.8066 C   0  0  0  0  0  0  0  0  0  0  0  0
   -2.1964   -3.9477    0.6628 C   0  0  0  0  0  0  0  0  0  0  0  0
   -1.9414   -3.3402   -0.5491 C   0  0  0  0  0  0  0  0  0  0  0  0
   -1.7834   -1.9804   -0.6478 C   0  0  0  0  0  0  0  0  0  0  0  0
   -1.8870   -1.2167    0.5143 C   0  0  0  0  0  0  0  0  0  0  0  0
   -1.7517    0.2320    0.3229 C   0  0  0  0  0  0  0  0  0  0  0  0
   -2.8457    0.7918   -0.0367 O   0  0  0  0  0  0  0  0  0  0  0  0
   -0.5455    0.9426    0.5145 N   0  0  0  0  0  0  0  0  0  0  0  0
    0.6195    0.2990    1.0800 C   0  0  0  0  0  0  0  0  0  0  0  0
    1.5264   -0.3719    0.1374 C   0  0  0  0  0  0  0  0  0  0  0  0
    2.5075    0.3134   -0.5923 C   0  0  0  0  0  0  0  0  0  0  0  0
    3.3703   -0.3416   -1.4491 C   0  0  0  0  0  0  0  0  0  0  0  0
    3.3206   -1.7061   -1.6394 C   0  0  0  0  0  0  0  0  0  0  0  0
    4.3694   -2.5858   -2.6958 Cl  0  0  0  0  0  0  0  0  0  0  0  0
    2.3613   -2.3949   -0.9286 C   0  0  0  0  0  0  0  0  0  0  0  0
    1.5012   -1.7418   -0.0742 C   0  0  0  0  0  0  0  0  0  0  0  0
   -0.3928    2.3364    0.2096 C   0  0  0  0  0  0  0  0  0  0  0  0
   -1.3266    3.1000   -0.4377 C   0  0  0  0  0  0  0  0  0  0  0  0
   -1.1184    4.4504   -0.6668 C   0  0  0  0  0  0  0  0  0  0  0  0
    0.0365    5.0748   -0.2519 C   0  0  0  0  0  0  0  0  0  0  0  0
    0.9651    4.2898    0.3975 C   0  0  0  0  0  0  0  0  0  0  0  0
    0.7347    2.9923    0.6029 N   0  0  0  0  0  0  0  0  0  0  0  0
   -2.4944   -3.6386    2.7554 H   0  0  0  0  0  0  0  0  0  0  0  0
   -2.3168   -5.0000    0.7282 H   0  0  0  0  0  0  0  0  0  0  0  0
   -1.8657   -3.9556   -1.4367 H   0  0  0  0  0  0  0  0  0  0  0  0
   -1.5839   -1.5318   -1.6142 H   0  0  0  0  0  0  0  0  0  0  0  0
    0.3082   -0.4693    1.8264 H   0  0  0  0  0  0  0  0  0  0  0  0
    1.2559    1.0202    1.6508 H   0  0  0  0  0  0  0  0  0  0  0  0
    2.6289    1.3746   -0.5112 H   0  0  0  0  0  0  0  0  0  0  0  0
    4.1208    0.2075   -2.0031 H   0  0  0  0  0  0  0  0  0  0  0  0
    2.2921   -3.4810   -1.0545 H   0  0  0  0  0  0  0  0  0  0  0  0
    0.7892   -2.3710    0.4530 H   0  0  0  0  0  0  0  0  0  0  0  0
   -2.2541    2.7059   -0.8078 H   0  0  0  0  0  0  0  0  0  0  0  0
   -1.8665    5.0516   -1.1823 H   0  0  0  0  0  0  0  0  0  0  0  0
    0.2252    6.1281   -0.4177 H   0  0  0  0  0  0  0  0  0  0  0  0
    1.9016    4.6965    0.7582 H   0  0  0  0  0  0  0  0  0  0  0  0
  1  2  1  0
  2  3  2  0
  3  4  1  0
  4  5  2  0
  5  6  1  0
  6  7  2  0
  7  8  1  0
  8  9  2  0
  8 10  1  0
 10 11  1  0
 11 12  1  0
 12 13  2  0
 13 14  1  0
 14 15  2  0
 15 16  1  0
 15 17  1  0
 17 18  2  0
 10 19  1  0
 19 20  2  0
 20 21  1  0
 21 22  2  0
 22 23  1  0
 23 24  2  0
  7  2  1  0
 18 12  1  0
 24 19  1  0
  3 25  1  0
  4 26  1  0
  5 27  1  0
  6 28  1  0
 11 29  1  0
 11 30  1  0
 13 31  1  0
 14 32  1  0
 17 33  1  0
 18 34  1  0
 20 35  1  0
 21 36  1  0
 22 37  1  0
 23 38  1  0
M  END
>  <Batch_No>  (100) 
OSSK_693188

>  <EC50_nM>  (100) 
ND

>  <Set>  (100) 
Drug-like

>  <Molecular_Weight>  (100) 
340.77866

>  <ALogP>  (100) 
4.662

$$$$
MMV665961
     RDKit          3D

 51 53  0  0  0  0  0  0  0  0999 V2000
   -4.7287    3.0110   -0.7389 C   0  0  0  0  0  0  0  0  0  0  0  0
   -4.5149    1.5413   -0.9978 C   0  0  0  0  0  0  0  0  0  0  0  0
   -3.4266    1.0470   -0.2148 N   0  0  0  0  0  0  0  0  0  0  0  0
   -3.6354    0.9765    1.1944 C   0  0  0  0  0  0  0  0  0  0  0  0
   -4.6068   -0.0876    1.6365 C   0  0  0  0  0  0  0  0  0  0  0  0
   -2.6862   -0.0035   -0.8017 C   0  0  0  0  0  0  0  0  0  0  0  0
   -1.6089   -0.6407   -0.0140 C   0  0  0  0  0  0  0  0  0  0  0  0
   -0.9705   -1.7653   -0.8363 C   0  0  0  0  0  0  0  0  0  0  0  0
    0.0689   -2.4545   -0.1064 N   0  0  0  0  0  0  0  0  0  0  0  0
    1.3149   -1.8805    0.1857 C   0  0  0  0  0  0  0  0  0  0  0  0
    1.5866   -0.6368   -0.2679 N   0  0  0  0  0  0  0  0  0  0  0  0
    2.7837   -0.0368   -0.0382 C   0  0  0  0  0  0  0  0  0  0  0  0
    3.7311   -0.7080    0.6664 N   0  0  0  0  0  0  0  0  0  0  0  0
    3.5375   -1.9285    1.1415 C   0  0  0  0  0  0  0  0  0  0  0  0
    4.5417   -2.5452    1.8455 C   0  0  0  0  0  0  0  0  0  0  0  0
    4.3048   -3.8106    2.3259 C   0  0  0  0  0  0  0  0  0  0  0  0
    3.0882   -4.4720    2.1184 C   0  0  0  0  0  0  0  0  0  0  0  0
    2.1038   -3.7905    1.3918 C   0  0  0  0  0  0  0  0  0  0  0  0
    2.3079   -2.5223    0.8957 C   0  0  0  0  0  0  0  0  0  0  0  0
    3.0919    1.2937   -0.5463 C   0  0  0  0  0  0  0  0  0  0  0  0
    4.3057    1.8807   -0.2107 C   0  0  0  0  0  0  0  0  0  0  0  0
    4.6646    3.1428   -0.6493 C   0  0  0  0  0  0  0  0  0  0  0  0
    3.7552    3.8330   -1.4583 C   0  0  0  0  0  0  0  0  0  0  0  0
    4.2073    5.4438   -2.0229 Cl  0  0  0  0  0  0  0  0  0  0  0  0
    2.5400    3.2658   -1.8043 C   0  0  0  0  0  0  0  0  0  0  0  0
    2.2287    2.0055   -1.3434 C   0  0  0  0  0  0  0  0  0  0  0  0
   -5.3045    3.4685   -1.5971 H   0  0  0  0  0  0  0  0  0  0  0  0
   -5.2742    3.1079    0.2177 H   0  0  0  0  0  0  0  0  0  0  0  0
   -3.7179    3.4801   -0.6625 H   0  0  0  0  0  0  0  0  0  0  0  0
   -5.4388    0.9901   -0.6826 H   0  0  0  0  0  0  0  0  0  0  0  0
   -4.3568    1.3071   -2.0515 H   0  0  0  0  0  0  0  0  0  0  0  0
   -4.1519    1.9632    1.4367 H   0  0  0  0  0  0  0  0  0  0  0  0
   -2.7094    1.0276    1.8060 H   0  0  0  0  0  0  0  0  0  0  0  0
   -5.1509   -0.4407    0.7214 H   0  0  0  0  0  0  0  0  0  0  0  0
   -4.0940   -0.9276    2.1568 H   0  0  0  0  0  0  0  0  0  0  0  0
   -5.3787    0.3741    2.2752 H   0  0  0  0  0  0  0  0  0  0  0  0
   -3.3936   -0.7892   -1.1595 H   0  0  0  0  0  0  0  0  0  0  0  0
   -2.2161    0.3974   -1.7475 H   0  0  0  0  0  0  0  0  0  0  0  0
   -1.9447   -1.1346    0.9167 H   0  0  0  0  0  0  0  0  0  0  0  0
   -0.7770    0.0244    0.2811 H   0  0  0  0  0  0  0  0  0  0  0  0
   -0.5210   -1.2566   -1.7336 H   0  0  0  0  0  0  0  0  0  0  0  0
   -1.7936   -2.3993   -1.1875 H   0  0  0  0  0  0  0  0  0  0  0  0
   -0.1889   -3.4375    0.1913 H   0  0  0  0  0  0  0  0  0  0  0  0
    5.5031   -2.0532    2.0218 H   0  0  0  0  0  0  0  0  0  0  0  0
    5.0709   -4.3403    2.8895 H   0  0  0  0  0  0  0  0  0  0  0  0
    2.9202   -5.4712    2.5100 H   0  0  0  0  0  0  0  0  0  0  0  0
    1.1786   -4.3208    1.2487 H   0  0  0  0  0  0  0  0  0  0  0  0
    5.0413    1.3769    0.4184 H   0  0  0  0  0  0  0  0  0  0  0  0
    5.5918    3.6252   -0.4045 H   0  0  0  0  0  0  0  0  0  0  0  0
    1.8323    3.7690   -2.4194 H   0  0  0  0  0  0  0  0  0  0  0  0
    1.2894    1.5006   -1.5836 H   0  0  0  0  0  0  0  0  0  0  0  0
  1  2  1  0
  2  3  1  0
  3  4  1  0
  4  5  1  0
  3  6  1  0
  6  7  1  0
  7  8  1  0
  8  9  1  0
  9 10  1  0
 10 11  2  0
 11 12  1  0
 12 13  2  0
 13 14  1  0
 14 15  2  0
 15 16  1  0
 16 17  2  0
 17 18  1  0
 18 19  2  0
 12 20  1  0
 20 21  2  0
 21 22  1  0
 22 23  2  0
 23 24  1  0
 23 25  1  0
 25 26  2  0
 19 10  1  0
 19 14  1  0
 26 20  1  0
  1 27  1  0
  1 28  1  0
  1 29  1  0
  2 30  1  0
  2 31  1  0
  4 32  1  0
  4 33  1  0
  5 34  1  0
  5 35  1  0
  5 36  1  0
  6 37  1  0
  6 38  1  0
  7 39  1  0
  7 40  1  0
  8 41  1  0
  8 42  1  0
  9 43  1  0
 15 44  1  0
 16 45  1  0
 17 46  1  0
 18 47  1  0
 21 48  1  0
 22 49  1  0
 25 50  1  0
 26 51  1  0
M  END
>  <Batch_No>  (101) 
6803678

>  <EC50_nM>  (101) 
ND

>  <Set>  (101) 
Drug-like

>  <Molecular_Weight>  (101) 
368.903

>  <ALogP>  (101) 
4.446

$$$$
MMV665929
     RDKit          3D

 43 44  0  0  0  0  0  0  0  0999 V2000
    5.6342   -0.8459   -0.1625 C   0  0  0  0  0  0  0  0  0  0  0  0
    4.7527    0.3121   -0.6142 C   0  0  0  0  0  0  0  0  0  0  0  0
    3.3869    0.0940    0.0330 C   0  0  0  0  0  0  0  0  0  0  0  0
    2.4490    1.2306   -0.3554 C   0  0  0  0  0  0  0  0  0  0  0  0
    1.1977    1.0103    0.2999 N   0  0  0  0  0  0  0  0  0  0  0  0
    0.4007   -0.0782   -0.1609 C   0  0  0  0  0  0  0  0  0  0  0  0
   -0.8341   -0.1949    0.7178 C   0  0  0  0  0  0  0  0  0  0  0  0
   -0.4887   -0.4383    2.0354 O   0  0  0  0  0  0  0  0  0  0  0  0
   -1.6726   -1.3758    0.3179 C   0  0  0  0  0  0  0  0  0  0  0  0
   -1.6309   -1.9417   -0.9294 C   0  0  0  0  0  0  0  0  0  0  0  0
   -2.4409   -3.0041   -1.1862 C   0  0  0  0  0  0  0  0  0  0  0  0
   -3.2896   -3.5134   -0.2305 C   0  0  0  0  0  0  0  0  0  0  0  0
   -4.3474   -4.8835   -0.5595 Cl  0  0  0  0  0  0  0  0  0  0  0  0
   -3.3547   -2.9698    1.0252 C   0  0  0  0  0  0  0  0  0  0  0  0
   -2.5336   -1.8842    1.3046 C   0  0  0  0  0  0  0  0  0  0  0  0
   -1.6290    1.0487    0.6627 C   0  0  0  0  0  0  0  0  0  0  0  0
   -1.6952    1.9879    1.6652 C   0  0  0  0  0  0  0  0  0  0  0  0
   -2.4846    3.1375    1.5549 C   0  0  0  0  0  0  0  0  0  0  0  0
   -3.2293    3.3588    0.4120 C   0  0  0  0  0  0  0  0  0  0  0  0
   -4.2100    4.8067    0.3052 Cl  0  0  0  0  0  0  0  0  0  0  0  0
   -3.1697    2.4230   -0.5983 C   0  0  0  0  0  0  0  0  0  0  0  0
   -2.3831    1.2918   -0.4708 C   0  0  0  0  0  0  0  0  0  0  0  0
    6.6196   -0.8501   -0.6777 H   0  0  0  0  0  0  0  0  0  0  0  0
    5.0901   -1.8162   -0.2568 H   0  0  0  0  0  0  0  0  0  0  0  0
    5.8762   -0.6849    0.9282 H   0  0  0  0  0  0  0  0  0  0  0  0
    5.1657    1.2779   -0.2587 H   0  0  0  0  0  0  0  0  0  0  0  0
    4.6069    0.2878   -1.7141 H   0  0  0  0  0  0  0  0  0  0  0  0
    2.9321   -0.8434   -0.3936 H   0  0  0  0  0  0  0  0  0  0  0  0
    3.4464    0.0253    1.1264 H   0  0  0  0  0  0  0  0  0  0  0  0
    2.3811    1.3005   -1.4499 H   0  0  0  0  0  0  0  0  0  0  0  0
    2.9129    2.1533    0.0922 H   0  0  0  0  0  0  0  0  0  0  0  0
    1.3095    0.9634    1.3356 H   0  0  0  0  0  0  0  0  0  0  0  0
    0.9812   -1.0140   -0.0844 H   0  0  0  0  0  0  0  0  0  0  0  0
    0.0712    0.1129   -1.2345 H   0  0  0  0  0  0  0  0  0  0  0  0
   -0.0730    0.2858    2.5322 H   0  0  0  0  0  0  0  0  0  0  0  0
   -0.9678   -1.5509   -1.6848 H   0  0  0  0  0  0  0  0  0  0  0  0
   -2.4258   -3.4807   -2.1741 H   0  0  0  0  0  0  0  0  0  0  0  0
   -3.9928   -3.3176    1.8215 H   0  0  0  0  0  0  0  0  0  0  0  0
   -2.5502   -1.4069    2.3011 H   0  0  0  0  0  0  0  0  0  0  0  0
   -1.1489    1.9013    2.5828 H   0  0  0  0  0  0  0  0  0  0  0  0
   -2.5037    3.8645    2.3802 H   0  0  0  0  0  0  0  0  0  0  0  0
   -3.7685    2.6163   -1.4874 H   0  0  0  0  0  0  0  0  0  0  0  0
   -2.3898    0.6042   -1.3091 H   0  0  0  0  0  0  0  0  0  0  0  0
  1  2  1  0
  2  3  1  0
  3  4  1  0
  4  5  1  0
  5  6  1  0
  6  7  1  0
  7  8  1  0
  7  9  1  0
  9 10  2  0
 10 11  1  0
 11 12  2  0
 12 13  1  0
 12 14  1  0
 14 15  2  0
  7 16  1  0
 16 17  2  0
 17 18  1  0
 18 19  2  0
 19 20  1  0
 19 21  1  0
 21 22  2  0
 15  9  1  0
 22 16  1  0
  1 23  1  0
  1 24  1  0
  1 25  1  0
  2 26  1  0
  2 27  1  0
  3 28  1  0
  3 29  1  0
  4 30  1  0
  4 31  1  0
  5 32  1  0
  6 33  1  0
  6 34  1  0
  8 35  1  0
 10 36  1  0
 11 37  1  0
 14 38  1  0
 15 39  1  0
 17 40  1  0
 18 41  1  0
 21 42  1  0
 22 43  1  0
M  END
>  <Batch_No>  (102) 
1J-340S

>  <EC50_nM>  (102) 
843

>  <Set>  (102) 
Drug-like

>  <Molecular_Weight>  (102) 
338.27144

>  <ALogP>  (102) 
4.954

$$$$
MMV666108
     RDKit          3D

 57 60  0  0  0  0  0  0  0  0999 V2000
    8.6725    2.4111    0.9525 Cl  0  0  0  0  0  0  0  0  0  0  0  0
    7.1479    1.5557    0.8214 C   0  0  0  0  0  0  0  0  0  0  0  0
    6.4511    1.2093    1.9779 C   0  0  0  0  0  0  0  0  0  0  0  0
    5.2483    0.5359    1.8783 C   0  0  0  0  0  0  0  0  0  0  0  0
    4.7267    0.2018    0.6679 C   0  0  0  0  0  0  0  0  0  0  0  0
    5.4184    0.5459   -0.4759 C   0  0  0  0  0  0  0  0  0  0  0  0
    6.6263    1.2204   -0.4220 C   0  0  0  0  0  0  0  0  0  0  0  0
    3.4404   -0.5325    0.4654 C   0  0  0  0  0  0  0  0  0  0  0  0
    2.2579    0.3504    0.5057 C   0  0  0  0  0  0  0  0  0  0  0  0
    0.9795   -0.2363    0.2849 N   0  0  0  0  0  0  0  0  0  0  0  0
   -0.0763    0.7412    0.6931 C   0  0  0  0  0  0  0  0  0  0  0  0
   -1.3218   -0.0809    0.7691 C   0  0  0  0  0  0  0  0  0  0  0  0
   -1.7173   -0.6926   -0.5497 C   0  0  0  0  0  0  0  0  0  0  0  0
   -0.5479   -1.1419   -1.3719 C   0  0  0  0  0  0  0  0  0  0  0  0
    0.6938   -0.3568   -1.1494 C   0  0  0  0  0  0  0  0  0  0  0  0
   -2.5818    0.2618   -1.2098 N   0  0  0  0  0  0  0  0  0  0  0  0
   -4.0034    0.0128   -1.3262 C   0  0  0  0  0  0  0  0  0  0  0  0
   -4.4009   -1.0550   -0.8258 O   0  0  0  0  0  0  0  0  0  0  0  0
   -4.8130    1.0265   -2.0073 C   0  0  0  0  0  0  0  0  0  0  0  0
   -6.2746    0.7299   -1.9056 C   0  0  0  0  0  0  0  0  0  0  0  0
   -6.8254    0.7029   -0.5427 C   0  0  0  0  0  0  0  0  0  0  0  0
   -7.2834    1.8120    0.0431 O   0  0  0  0  0  0  0  0  0  0  0  0
   -7.7259    1.5823    1.2357 C   0  0  0  0  0  0  0  0  0  0  0  0
   -7.5760    0.2339    1.5178 C   0  0  0  0  0  0  0  0  0  0  0  0
   -7.0040   -0.2925    0.3696 C   0  0  0  0  0  0  0  0  0  0  0  0
    3.4249   -1.6581    1.5317 C   0  0  0  0  0  0  0  0  0  0  0  0
    4.3964   -2.3659    0.5548 C   0  0  0  0  0  0  0  0  0  0  0  0
    3.5311   -1.6491   -0.5310 C   0  0  0  0  0  0  0  0  0  0  0  0
    6.8490    1.4660    2.9429 H   0  0  0  0  0  0  0  0  0  0  0  0
    4.7525    0.3046    2.8055 H   0  0  0  0  0  0  0  0  0  0  0  0
    5.0410    0.3022   -1.4775 H   0  0  0  0  0  0  0  0  0  0  0  0
    7.1549    1.4825   -1.3289 H   0  0  0  0  0  0  0  0  0  0  0  0
    2.4031    1.2402   -0.1741 H   0  0  0  0  0  0  0  0  0  0  0  0
    2.2176    0.8398    1.5305 H   0  0  0  0  0  0  0  0  0  0  0  0
    0.1540    1.1808    1.6638 H   0  0  0  0  0  0  0  0  0  0  0  0
   -0.1812    1.4748   -0.1230 H   0  0  0  0  0  0  0  0  0  0  0  0
   -1.1578   -0.9089    1.5220 H   0  0  0  0  0  0  0  0  0  0  0  0
   -2.1324    0.5247    1.1881 H   0  0  0  0  0  0  0  0  0  0  0  0
   -2.3261   -1.5849   -0.3027 H   0  0  0  0  0  0  0  0  0  0  0  0
   -0.8319   -1.0703   -2.4426 H   0  0  0  0  0  0  0  0  0  0  0  0
   -0.3133   -2.2174   -1.1795 H   0  0  0  0  0  0  0  0  0  0  0  0
    1.5070   -0.7055   -1.7544 H   0  0  0  0  0  0  0  0  0  0  0  0
    0.4750    0.7017   -1.4920 H   0  0  0  0  0  0  0  0  0  0  0  0
   -2.1698    1.1544   -1.6139 H   0  0  0  0  0  0  0  0  0  0  0  0
   -4.5211    1.0813   -3.1028 H   0  0  0  0  0  0  0  0  0  0  0  0
   -4.5568    2.0044   -1.5317 H   0  0  0  0  0  0  0  0  0  0  0  0
   -6.8086    1.5184   -2.5160 H   0  0  0  0  0  0  0  0  0  0  0  0
   -6.5192   -0.2827   -2.3490 H   0  0  0  0  0  0  0  0  0  0  0  0
   -8.1511    2.2836    1.9400 H   0  0  0  0  0  0  0  0  0  0  0  0
   -7.8421   -0.2904    2.4247 H   0  0  0  0  0  0  0  0  0  0  0  0
   -6.7754   -1.3392    0.2828 H   0  0  0  0  0  0  0  0  0  0  0  0
    3.8940   -1.4212    2.4780 H   0  0  0  0  0  0  0  0  0  0  0  0
    2.4752   -2.2118    1.5207 H   0  0  0  0  0  0  0  0  0  0  0  0
    5.4036   -1.9109    0.6195 H   0  0  0  0  0  0  0  0  0  0  0  0
    4.3122   -3.4527    0.5317 H   0  0  0  0  0  0  0  0  0  0  0  0
    4.1580   -1.5251   -1.4077 H   0  0  0  0  0  0  0  0  0  0  0  0
    2.6262   -2.2898   -0.6058 H   0  0  0  0  0  0  0  0  0  0  0  0
  1  2  1  0
  2  3  2  0
  3  4  1  0
  4  5  2  0
  5  6  1  0
  6  7  2  0
  5  8  1  0
  8  9  1  0
  9 10  1  0
 10 11  1  0
 11 12  1  0
 12 13  1  0
 13 14  1  0
 14 15  1  0
 13 16  1  0
 16 17  1  0
 17 18  2  0
 17 19  1  0
 19 20  1  0
 20 21  1  0
 21 22  1  0
 22 23  1  0
 23 24  2  0
 24 25  1  0
  8 26  1  0
 26 27  1  0
 27 28  1  0
  7  2  1  0
 28  8  1  0
 15 10  1  0
 25 21  2  0
  3 29  1  0
  4 30  1  0
  6 31  1  0
  7 32  1  0
  9 33  1  0
  9 34  1  0
 11 35  1  0
 11 36  1  0
 12 37  1  0
 12 38  1  0
 13 39  1  0
 14 40  1  0
 14 41  1  0
 15 42  1  0
 15 43  1  0
 16 44  1  0
 19 45  1  0
 19 46  1  0
 20 47  1  0
 20 48  1  0
 23 49  1  0
 24 50  1  0
 25 51  1  0
 26 52  1  0
 26 53  1  0
 27 54  1  0
 27 55  1  0
 28 56  1  0
 28 57  1  0
M  END
>  <Batch_No>  (103) 
LMG 15495828

>  <EC50_nM>  (103) 
1140

>  <Set>  (103) 
Drug-like

>  <Molecular_Weight>  (103) 
400.94155

>  <ALogP>  (103) 
3.86

$$$$
MMV665948
     RDKit          3D

 34 36  0  0  0  0  0  0  0  0999 V2000
   -3.9954   -1.2987    1.1212 O   0  0  0  0  0  0  0  0  0  0  0  0
   -4.4340   -0.2470    0.3185 C   0  0  0  0  0  0  0  0  0  0  0  0
   -5.7319    0.2375    0.4580 C   0  0  0  0  0  0  0  0  0  0  0  0
   -6.1669    1.2630   -0.3213 C   0  0  0  0  0  0  0  0  0  0  0  0
   -5.2856    1.7972   -1.2421 C   0  0  0  0  0  0  0  0  0  0  0  0
   -3.9930    1.3243   -1.3903 C   0  0  0  0  0  0  0  0  0  0  0  0
   -3.5465    0.2824   -0.6006 C   0  0  0  0  0  0  0  0  0  0  0  0
   -2.2304   -0.1910   -0.7592 N   0  0  0  0  0  0  0  0  0  0  0  0
   -1.1033    0.2901   -0.0624 C   0  0  0  0  0  0  0  0  0  0  0  0
   -1.2523    1.2156    0.7746 O   0  0  0  0  0  0  0  0  0  0  0  0
    0.2152   -0.2798   -0.3113 C   0  0  0  0  0  0  0  0  0  0  0  0
    1.3057    0.0801    0.2637 O   0  0  0  0  0  0  0  0  0  0  0  0
    2.3639   -0.5968   -0.1422 C   0  0  0  0  0  0  0  0  0  0  0  0
    1.8795   -1.4780   -1.0753 C   0  0  0  0  0  0  0  0  0  0  0  0
    0.5144   -1.2877   -1.1932 C   0  0  0  0  0  0  0  0  0  0  0  0
    3.6881   -0.3535    0.3741 C   0  0  0  0  0  0  0  0  0  0  0  0
    3.8382    0.6426    1.3424 C   0  0  0  0  0  0  0  0  0  0  0  0
    5.0686    0.9452    1.8941 C   0  0  0  0  0  0  0  0  0  0  0  0
    6.2147    0.2791    1.5174 C   0  0  0  0  0  0  0  0  0  0  0  0
    7.7756    0.6493    2.2044 Cl  0  0  0  0  0  0  0  0  0  0  0  0
    6.0735   -0.7050    0.5624 C   0  0  0  0  0  0  0  0  0  0  0  0
    4.8283   -1.0103    0.0049 C   0  0  0  0  0  0  0  0  0  0  0  0
    4.7858   -2.2648   -1.1826 Cl  0  0  0  0  0  0  0  0  0  0  0  0
   -3.6419   -2.1672    0.7624 H   0  0  0  0  0  0  0  0  0  0  0  0
   -6.3617   -0.2390    1.2067 H   0  0  0  0  0  0  0  0  0  0  0  0
   -7.1769    1.6234   -0.1969 H   0  0  0  0  0  0  0  0  0  0  0  0
   -5.6246    2.6036   -1.8563 H   0  0  0  0  0  0  0  0  0  0  0  0
   -3.3091    1.7612   -2.1262 H   0  0  0  0  0  0  0  0  0  0  0  0
   -2.0682   -0.9676   -1.4536 H   0  0  0  0  0  0  0  0  0  0  0  0
    2.4181   -2.1936   -1.6305 H   0  0  0  0  0  0  0  0  0  0  0  0
   -0.1540   -1.8256   -1.8438 H   0  0  0  0  0  0  0  0  0  0  0  0
    3.0009    1.2251    1.7075 H   0  0  0  0  0  0  0  0  0  0  0  0
    5.1550    1.7063    2.6277 H   0  0  0  0  0  0  0  0  0  0  0  0
    6.9503   -1.2428    0.2478 H   0  0  0  0  0  0  0  0  0  0  0  0
  1  2  1  0
  2  3  2  0
  3  4  1  0
  4  5  2  0
  5  6  1  0
  6  7  2  0
  7  8  1  0
  8  9  1  0
  9 10  2  0
  9 11  1  0
 11 12  1  0
 12 13  1  0
 13 14  2  0
 14 15  1  0
 13 16  1  0
 16 17  2  0
 17 18  1  0
 18 19  2  0
 19 20  1  0
 19 21  1  0
 21 22  2  0
 22 23  1  0
  7  2  1  0
 15 11  2  0
 22 16  1  0
  1 24  1  0
  3 25  1  0
  4 26  1  0
  5 27  1  0
  6 28  1  0
  8 29  1  0
 14 30  1  0
 15 31  1  0
 17 32  1  0
 18 33  1  0
 21 34  1  0
M  END
>  <Batch_No>  (104) 
6102618

>  <EC50_nM>  (104) 
ND

>  <Set>  (104) 
Drug-like

>  <Molecular_Weight>  (104) 
348.18014

>  <ALogP>  (104) 
4.906

$$$$
MMV006188
     RDKit          3D

 44 46  0  0  0  0  0  0  0  0999 V2000
   -7.1628   -3.0966   -1.0613 Cl  0  0  0  0  0  0  0  0  0  0  0  0
   -6.0243   -1.8220   -0.6847 C   0  0  0  0  0  0  0  0  0  0  0  0
   -5.1120   -1.3458   -1.6325 C   0  0  0  0  0  0  0  0  0  0  0  0
   -4.2258   -0.3309   -1.2872 C   0  0  0  0  0  0  0  0  0  0  0  0
   -4.2103    0.2352   -0.0241 C   0  0  0  0  0  0  0  0  0  0  0  0
   -5.1163   -0.2445    0.9016 C   0  0  0  0  0  0  0  0  0  0  0  0
   -6.0181   -1.2580    0.5943 C   0  0  0  0  0  0  0  0  0  0  0  0
   -3.1209    1.5018    0.4438 S   0  0  0  0  0  0  0  0  0  0  0  0
   -3.8156    2.3364    1.4978 O   0  0  0  0  0  0  0  0  0  0  0  0
   -2.8076    2.4317   -0.7027 O   0  0  0  0  0  0  0  0  0  0  0  0
   -1.6695    0.8017    1.0866 N   0  0  0  0  0  0  0  0  0  0  0  0
   -1.0712    0.0281    0.0536 C   0  0  0  0  0  0  0  0  0  0  0  0
    0.4033   -0.1412    0.1073 C   0  0  0  0  0  0  0  0  0  0  0  0
    1.1172    1.0908    0.5706 C   0  0  0  0  0  0  0  0  0  0  0  0
    0.5314    1.4067    1.9438 C   0  0  0  0  0  0  0  0  0  0  0  0
   -0.8965    1.8699    1.6252 C   0  0  0  0  0  0  0  0  0  0  0  0
    2.5706    0.9080    0.5845 C   0  0  0  0  0  0  0  0  0  0  0  0
    3.3084    1.6625   -0.1338 O   0  0  0  0  0  0  0  0  0  0  0  0
    3.1253   -0.1159    1.4067 N   0  0  0  0  0  0  0  0  0  0  0  0
    4.5582   -0.2923    1.4173 C   0  0  0  0  0  0  0  0  0  0  0  0
    5.1025   -0.6173    0.0729 C   0  0  0  0  0  0  0  0  0  0  0  0
    5.4954    0.3368   -0.7687 O   0  0  0  0  0  0  0  0  0  0  0  0
    5.9368   -0.2205   -1.8909 C   0  0  0  0  0  0  0  0  0  0  0  0
    5.8262   -1.5921   -1.7733 C   0  0  0  0  0  0  0  0  0  0  0  0
    5.2953   -1.8461   -0.5239 C   0  0  0  0  0  0  0  0  0  0  0  0
   -5.1332   -1.7956   -2.6164 H   0  0  0  0  0  0  0  0  0  0  0  0
   -3.5270    0.0255   -2.0325 H   0  0  0  0  0  0  0  0  0  0  0  0
   -5.1384    0.1694    1.8999 H   0  0  0  0  0  0  0  0  0  0  0  0
   -6.7150   -1.6142    1.3358 H   0  0  0  0  0  0  0  0  0  0  0  0
   -1.5213   -1.0058    0.1278 H   0  0  0  0  0  0  0  0  0  0  0  0
   -1.3980    0.3713   -0.9675 H   0  0  0  0  0  0  0  0  0  0  0  0
    0.7420   -0.9803    0.7459 H   0  0  0  0  0  0  0  0  0  0  0  0
    0.7754   -0.3461   -0.9330 H   0  0  0  0  0  0  0  0  0  0  0  0
    0.8421    1.9865   -0.0579 H   0  0  0  0  0  0  0  0  0  0  0  0
    1.0746    2.1762    2.4879 H   0  0  0  0  0  0  0  0  0  0  0  0
    0.4224    0.4409    2.4794 H   0  0  0  0  0  0  0  0  0  0  0  0
   -1.4070    2.2500    2.5193 H   0  0  0  0  0  0  0  0  0  0  0  0
   -0.8469    2.7253    0.8987 H   0  0  0  0  0  0  0  0  0  0  0  0
    2.4641   -0.7110    1.9811 H   0  0  0  0  0  0  0  0  0  0  0  0
    5.0768    0.6265    1.8127 H   0  0  0  0  0  0  0  0  0  0  0  0
    4.7682   -1.1276    2.1366 H   0  0  0  0  0  0  0  0  0  0  0  0
    6.3267    0.2576   -2.7769 H   0  0  0  0  0  0  0  0  0  0  0  0
    6.1088   -2.3311   -2.5330 H   0  0  0  0  0  0  0  0  0  0  0  0
    5.0661   -2.8036   -0.0761 H   0  0  0  0  0  0  0  0  0  0  0  0
  1  2  1  0
  2  3  2  0
  3  4  1  0
  4  5  2  0
  5  6  1  0
  6  7  2  0
  5  8  1  0
  8  9  2  0
  8 10  2  0
  8 11  1  0
 11 12  1  0
 12 13  1  0
 13 14  1  0
 14 15  1  0
 15 16  1  0
 14 17  1  0
 17 18  2  0
 17 19  1  0
 19 20  1  0
 20 21  1  0
 21 22  1  0
 22 23  1  0
 23 24  2  0
 24 25  1  0
  7  2  1  0
 16 11  1  0
 25 21  2  0
  3 26  1  0
  4 27  1  0
  6 28  1  0
  7 29  1  0
 12 30  1  0
 12 31  1  0
 13 32  1  0
 13 33  1  0
 14 34  1  0
 15 35  1  0
 15 36  1  0
 16 37  1  0
 16 38  1  0
 19 39  1  0
 20 40  1  0
 20 41  1  0
 23 42  1  0
 24 43  1  0
 25 44  1  0
M  END
>  <Batch_No>  (105) 
2294-0307

>  <EC50_nM>  (105) 
890.5

>  <Set>  (105) 
Drug-like

>  <Molecular_Weight>  (105) 
382.86176

>  <ALogP>  (105) 
2.056

$$$$
MMV001230
     RDKit          3D

 53 56  0  0  0  0  0  0  0  0999 V2000
   -5.3430    2.9565   -0.9378 C   0  0  0  0  0  0  0  0  0  0  0  0
   -4.9301    2.2637    0.3349 C   0  0  0  0  0  0  0  0  0  0  0  0
   -3.7504    1.5056    0.1990 O   0  0  0  0  0  0  0  0  0  0  0  0
   -3.1549    0.7752    1.2037 C   0  0  0  0  0  0  0  0  0  0  0  0
   -3.7529    0.7813    2.4394 C   0  0  0  0  0  0  0  0  0  0  0  0
   -3.2879    0.1072    3.5441 C   0  0  0  0  0  0  0  0  0  0  0  0
   -2.1202   -0.6287    3.3650 C   0  0  0  0  0  0  0  0  0  0  0  0
   -1.5172   -0.6337    2.1153 C   0  0  0  0  0  0  0  0  0  0  0  0
   -0.0335   -1.4500    1.5222 S   0  0  0  0  0  0  0  0  0  0  0  0
   -0.2876   -0.7062   -0.2397 C   0  0  0  0  0  0  0  0  0  0  0  0
   -1.2404   -0.1186   -0.0542 N   0  0  0  0  0  0  0  0  0  0  0  0
   -1.9821    0.0361    1.0240 C   0  0  0  0  0  0  0  0  0  0  0  0
    0.7720   -1.1385   -1.1530 N   0  0  0  0  0  0  0  0  0  0  0  0
    0.4725   -2.3501   -1.8846 C   0  0  0  0  0  0  0  0  0  0  0  0
    0.9123   -3.5720   -1.1744 C   0  0  0  0  0  0  0  0  0  0  0  0
    2.1588   -4.1414   -1.3290 C   0  0  0  0  0  0  0  0  0  0  0  0
    2.5389   -5.2940   -0.6432 C   0  0  0  0  0  0  0  0  0  0  0  0
    1.6125   -5.8636    0.2149 C   0  0  0  0  0  0  0  0  0  0  0  0
    0.3826   -5.3171    0.3789 N   0  0  0  0  0  0  0  0  0  0  0  0
    0.0407   -4.1969   -0.3004 C   0  0  0  0  0  0  0  0  0  0  0  0
    1.9777   -0.4332   -1.3041 C   0  0  0  0  0  0  0  0  0  0  0  0
    2.8359   -0.9426   -2.1068 O   0  0  0  0  0  0  0  0  0  0  0  0
    2.3576    0.8160   -0.6431 C   0  0  0  0  0  0  0  0  0  0  0  0
    1.5068    1.9498   -1.1372 C   0  0  0  0  0  0  0  0  0  0  0  0
    1.5924    3.0469   -0.0959 C   0  0  0  0  0  0  0  0  0  0  0  0
    3.0170    3.1724    0.3666 C   0  0  0  0  0  0  0  0  0  0  0  0
    4.0264    2.5987   -0.5930 C   0  0  0  0  0  0  0  0  0  0  0  0
    3.8358    1.1087   -0.8027 C   0  0  0  0  0  0  0  0  0  0  0  0
   -4.4935    3.4058   -1.4806 H   0  0  0  0  0  0  0  0  0  0  0  0
   -6.0673    3.7639   -0.6454 H   0  0  0  0  0  0  0  0  0  0  0  0
   -5.9139    2.2964   -1.6159 H   0  0  0  0  0  0  0  0  0  0  0  0
   -4.8267    3.0498    1.1186 H   0  0  0  0  0  0  0  0  0  0  0  0
   -5.7670    1.6264    0.6685 H   0  0  0  0  0  0  0  0  0  0  0  0
   -4.6686    1.3573    2.5834 H   0  0  0  0  0  0  0  0  0  0  0  0
   -3.7645    0.1173    4.5127 H   0  0  0  0  0  0  0  0  0  0  0  0
   -1.6687   -1.1901    4.1499 H   0  0  0  0  0  0  0  0  0  0  0  0
    1.0232   -2.2412   -2.8593 H   0  0  0  0  0  0  0  0  0  0  0  0
   -0.6055   -2.3673   -2.1321 H   0  0  0  0  0  0  0  0  0  0  0  0
    2.8666   -3.6896   -1.9971 H   0  0  0  0  0  0  0  0  0  0  0  0
    3.5146   -5.7386   -0.7650 H   0  0  0  0  0  0  0  0  0  0  0  0
    1.8750   -6.7575    0.7618 H   0  0  0  0  0  0  0  0  0  0  0  0
   -0.9435   -3.7638   -0.1661 H   0  0  0  0  0  0  0  0  0  0  0  0
    2.1946    0.7764    0.4713 H   0  0  0  0  0  0  0  0  0  0  0  0
    1.9291    2.3803   -2.0894 H   0  0  0  0  0  0  0  0  0  0  0  0
    0.4815    1.6167   -1.2848 H   0  0  0  0  0  0  0  0  0  0  0  0
    0.9156    2.7545    0.7517 H   0  0  0  0  0  0  0  0  0  0  0  0
    1.1818    3.9788   -0.5139 H   0  0  0  0  0  0  0  0  0  0  0  0
    3.2371    4.2718    0.4102 H   0  0  0  0  0  0  0  0  0  0  0  0
    3.1831    2.7142    1.3759 H   0  0  0  0  0  0  0  0  0  0  0  0
    4.0010    3.1323   -1.5589 H   0  0  0  0  0  0  0  0  0  0  0  0
    5.0194    2.7452   -0.1389 H   0  0  0  0  0  0  0  0  0  0  0  0
    4.4439    0.5717   -0.0573 H   0  0  0  0  0  0  0  0  0  0  0  0
    4.2130    0.8574   -1.8084 H   0  0  0  0  0  0  0  0  0  0  0  0
  1  2  1  0
  2  3  1  0
  3  4  1  0
  4  5  2  0
  5  6  1  0
  6  7  2  0
  7  8  1  0
  8  9  1  0
  9 10  1  0
 10 11  2  0
 11 12  1  0
 10 13  1  0
 13 14  1  0
 14 15  1  0
 15 16  2  0
 16 17  1  0
 17 18  2  0
 18 19  1  0
 19 20  2  0
 13 21  1  0
 21 22  2  0
 21 23  1  0
 23 24  1  0
 24 25  1  0
 25 26  1  0
 26 27  1  0
 27 28  1  0
 12  4  1  0
 12  8  2  0
 20 15  1  0
 28 23  1  0
  1 29  1  0
  1 30  1  0
  1 31  1  0
  2 32  1  0
  2 33  1  0
  5 34  1  0
  6 35  1  0
  7 36  1  0
 14 37  1  0
 14 38  1  0
 16 39  1  0
 17 40  1  0
 18 41  1  0
 20 42  1  0
 23 43  1  0
 24 44  1  0
 24 45  1  0
 25 46  1  0
 25 47  1  0
 26 48  1  0
 26 49  1  0
 27 50  1  0
 27 51  1  0
 28 52  1  0
 28 53  1  0
M  END
>  <Batch_No>  (106) 
G856-6988

>  <EC50_nM>  (106) 
ND

>  <Set>  (106) 
Drug-like

>  <Molecular_Weight>  (106) 
395.51779

>  <ALogP>  (106) 
4.673

$$$$
MMV665918
     RDKit          3D

 44 48  0  0  0  0  0  0  0  0999 V2000
   -6.1652   -3.0256   -0.8457 F   0  0  0  0  0  0  0  0  0  0  0  0
   -6.1342   -1.6968   -0.5608 C   0  0  0  0  0  0  0  0  0  0  0  0
   -7.1788   -0.8738   -0.9290 C   0  0  0  0  0  0  0  0  0  0  0  0
   -7.1754    0.4778   -0.6563 C   0  0  0  0  0  0  0  0  0  0  0  0
   -6.0862    0.9922    0.0028 C   0  0  0  0  0  0  0  0  0  0  0  0
   -5.0270    0.1601    0.3762 C   0  0  0  0  0  0  0  0  0  0  0  0
   -5.0231   -1.1910    0.1081 C   0  0  0  0  0  0  0  0  0  0  0  0
   -3.9161    0.8362    1.0627 C   0  0  0  0  0  0  0  0  0  0  0  0
   -3.9814    1.5334    2.2143 N   0  0  0  0  0  0  0  0  0  0  0  0
   -2.7530    1.9893    2.4691 N   0  0  0  0  0  0  0  0  0  0  0  0
   -1.9279    1.5710    1.4696 C   0  0  0  0  0  0  0  0  0  0  0  0
   -0.5893    1.7394    1.2090 C   0  0  0  0  0  0  0  0  0  0  0  0
   -0.0621    1.1532    0.0508 C   0  0  0  0  0  0  0  0  0  0  0  0
   -0.8506    0.4342   -0.7968 C   0  0  0  0  0  0  0  0  0  0  0  0
   -0.3139   -0.3613   -2.2961 S   0  0  0  0  0  0  0  0  0  0  0  0
    0.2640   -2.0445   -1.9591 C   0  0  0  0  0  0  0  0  0  0  0  0
    1.5884   -2.0406   -1.2799 C   0  0  0  0  0  0  0  0  0  0  0  0
    2.0398   -3.0748   -0.7449 O   0  0  0  0  0  0  0  0  0  0  0  0
    2.3072   -0.8351   -1.2671 N   0  0  0  0  0  0  0  0  0  0  0  0
    3.5633   -0.5879   -0.6898 C   0  0  0  0  0  0  0  0  0  0  0  0
    4.3347   -1.4984   -0.0139 C   0  0  0  0  0  0  0  0  0  0  0  0
    5.5798   -1.1858    0.5237 C   0  0  0  0  0  0  0  0  0  0  0  0
    6.1115    0.0941    0.3973 C   0  0  0  0  0  0  0  0  0  0  0  0
    7.2884    0.7124    0.8044 O   0  0  0  0  0  0  0  0  0  0  0  0
    7.4245    1.8568   -0.0513 C   0  0  0  0  0  0  0  0  0  0  0  0
    6.0617    2.2036   -0.2822 O   0  0  0  0  0  0  0  0  0  0  0  0
    5.3243    1.0049   -0.2862 C   0  0  0  0  0  0  0  0  0  0  0  0
    4.0962    0.6878   -0.8139 C   0  0  0  0  0  0  0  0  0  0  0  0
   -2.1715    0.2980   -0.4924 N   0  0  0  0  0  0  0  0  0  0  0  0
   -2.6421    0.8537    0.5922 N   0  0  0  0  0  0  0  0  0  0  0  0
   -8.0442   -1.2808   -1.4527 H   0  0  0  0  0  0  0  0  0  0  0  0
   -7.9782    1.1518   -0.9287 H   0  0  0  0  0  0  0  0  0  0  0  0
   -6.0577    2.0546    0.2330 H   0  0  0  0  0  0  0  0  0  0  0  0
   -4.1889   -1.8063    0.4105 H   0  0  0  0  0  0  0  0  0  0  0  0
    0.0330    2.3001    1.8687 H   0  0  0  0  0  0  0  0  0  0  0  0
    0.9792    1.3167   -0.1132 H   0  0  0  0  0  0  0  0  0  0  0  0
    0.3078   -2.5824   -2.9272 H   0  0  0  0  0  0  0  0  0  0  0  0
   -0.4858   -2.5478   -1.3124 H   0  0  0  0  0  0  0  0  0  0  0  0
    1.8447   -0.0219   -1.7755 H   0  0  0  0  0  0  0  0  0  0  0  0
    4.0059   -2.5099    0.1320 H   0  0  0  0  0  0  0  0  0  0  0  0
    6.1820   -1.8964    1.0528 H   0  0  0  0  0  0  0  0  0  0  0  0
    8.0002    2.6453    0.4487 H   0  0  0  0  0  0  0  0  0  0  0  0
    7.8491    1.5020   -1.0104 H   0  0  0  0  0  0  0  0  0  0  0  0
    3.5674    1.4927   -1.3318 H   0  0  0  0  0  0  0  0  0  0  0  0
  1  2  1  0
  2  3  2  0
  3  4  1  0
  4  5  2  0
  5  6  1  0
  6  7  2  0
  6  8  1  0
  8  9  2  0
  9 10  1  0
 10 11  2  0
 11 12  1  0
 12 13  2  0
 13 14  1  0
 14 15  1  0
 15 16  1  0
 16 17  1  0
 17 18  2  0
 17 19  1  0
 19 20  1  0
 20 21  2  0
 21 22  1  0
 22 23  2  0
 23 24  1  0
 24 25  1  0
 25 26  1  0
 26 27  1  0
 27 28  2  0
 14 29  2  0
 29 30  1  0
  7  2  1  0
 30  8  1  0
 30 11  1  0
 28 20  1  0
 27 23  1  0
  3 31  1  0
  4 32  1  0
  5 33  1  0
  7 34  1  0
 12 35  1  0
 13 36  1  0
 16 37  1  0
 16 38  1  0
 19 39  1  0
 21 40  1  0
 22 41  1  0
 25 42  1  0
 25 43  1  0
 28 44  1  0
M  END
>  <Batch_No>  (107) 
F0676-0401

>  <EC50_nM>  (107) 
ND

>  <Set>  (107) 
Drug-like

>  <Molecular_Weight>  (107) 
423.42026

>  <ALogP>  (107) 
3.469

$$$$
MMV665799
     RDKit          3D

 43 45  0  0  0  0  0  0  0  0999 V2000
    6.8783    2.8488    0.5866 C   0  0  0  0  0  0  0  0  0  0  0  0
    5.4947    2.9728    0.3694 O   0  0  0  0  0  0  0  0  0  0  0  0
    4.6316    1.8890    0.3108 C   0  0  0  0  0  0  0  0  0  0  0  0
    5.0457    0.5814    0.4599 C   0  0  0  0  0  0  0  0  0  0  0  0
    4.1098   -0.4475    0.3867 C   0  0  0  0  0  0  0  0  0  0  0  0
    2.7688   -0.2069    0.1682 C   0  0  0  0  0  0  0  0  0  0  0  0
    2.3704    1.0868    0.0224 C   0  0  0  0  0  0  0  0  0  0  0  0
    3.2919    2.1342    0.0922 C   0  0  0  0  0  0  0  0  0  0  0  0
    1.8449   -1.3620    0.1054 C   0  0  0  0  0  0  0  0  0  0  0  0
    2.3743   -2.4712    0.2617 O   0  0  0  0  0  0  0  0  0  0  0  0
    0.4468   -1.1843   -0.1206 N   0  0  0  0  0  0  0  0  0  0  0  0
   -0.4990   -2.2382   -0.2014 C   0  0  0  0  0  0  0  0  0  0  0  0
   -0.1252   -3.5584   -0.3324 C   0  0  0  0  0  0  0  0  0  0  0  0
   -1.0142   -4.6150   -0.3933 C   0  0  0  0  0  0  0  0  0  0  0  0
   -2.3510   -4.3463   -0.3207 C   0  0  0  0  0  0  0  0  0  0  0  0
   -3.5040   -5.6590   -0.3954 Cl  0  0  0  0  0  0  0  0  0  0  0  0
   -2.7347   -3.0296   -0.1897 C   0  0  0  0  0  0  0  0  0  0  0  0
   -1.8503   -1.9680   -0.1274 C   0  0  0  0  0  0  0  0  0  0  0  0
   -2.4145   -0.6425    0.0461 C   0  0  0  0  0  0  0  0  0  0  0  0
   -1.7578    0.4179    0.2129 O   0  0  0  0  0  0  0  0  0  0  0  0
   -3.8423   -0.4227    0.0404 N   0  0  0  0  0  0  0  0  0  0  0  0
   -4.3228    0.9075    0.2175 C   0  0  0  0  0  0  0  0  0  0  0  0
   -4.5497    1.7756   -0.8079 C   0  0  0  0  0  0  0  0  0  0  0  0
   -5.0162    3.0470   -0.5421 C   0  0  0  0  0  0  0  0  0  0  0  0
   -5.2517    3.4398    0.7429 N   0  0  0  0  0  0  0  0  0  0  0  0
   -5.0396    2.6101    1.7851 C   0  0  0  0  0  0  0  0  0  0  0  0
   -4.5706    1.3340    1.5091 C   0  0  0  0  0  0  0  0  0  0  0  0
    7.3307    1.9564    0.1298 H   0  0  0  0  0  0  0  0  0  0  0  0
    7.1470    2.9112    1.6676 H   0  0  0  0  0  0  0  0  0  0  0  0
    7.3582    3.7299    0.1113 H   0  0  0  0  0  0  0  0  0  0  0  0
    6.1064    0.3704    0.6341 H   0  0  0  0  0  0  0  0  0  0  0  0
    4.5199   -1.4497    0.5150 H   0  0  0  0  0  0  0  0  0  0  0  0
    1.3521    1.3764   -0.1505 H   0  0  0  0  0  0  0  0  0  0  0  0
    2.9458    3.1692   -0.0286 H   0  0  0  0  0  0  0  0  0  0  0  0
    0.1612   -0.1927   -0.2468 H   0  0  0  0  0  0  0  0  0  0  0  0
    0.9265   -3.8749   -0.4124 H   0  0  0  0  0  0  0  0  0  0  0  0
   -0.6957   -5.6479   -0.4963 H   0  0  0  0  0  0  0  0  0  0  0  0
   -3.8268   -2.8952   -0.1354 H   0  0  0  0  0  0  0  0  0  0  0  0
   -4.5355   -1.1668   -0.0860 H   0  0  0  0  0  0  0  0  0  0  0  0
   -4.3672    1.4726   -1.8095 H   0  0  0  0  0  0  0  0  0  0  0  0
   -5.2133    3.7725   -1.3006 H   0  0  0  0  0  0  0  0  0  0  0  0
   -5.2188    2.8979    2.8137 H   0  0  0  0  0  0  0  0  0  0  0  0
   -4.4039    0.6772    2.3495 H   0  0  0  0  0  0  0  0  0  0  0  0
  1  2  1  0
  2  3  1  0
  3  4  2  0
  4  5  1  0
  5  6  2  0
  6  7  1  0
  7  8  2  0
  6  9  1  0
  9 10  2  0
  9 11  1  0
 11 12  1  0
 12 13  2  0
 13 14  1  0
 14 15  2  0
 15 16  1  0
 15 17  1  0
 17 18  2  0
 18 19  1  0
 19 20  2  0
 19 21  1  0
 21 22  1  0
 22 23  2  0
 23 24  1  0
 24 25  2  0
 25 26  1  0
 26 27  2  0
  8  3  1  0
 18 12  1  0
 27 22  1  0
  1 28  1  0
  1 29  1  0
  1 30  1  0
  4 31  1  0
  5 32  1  0
  7 33  1  0
  8 34  1  0
 11 35  1  0
 13 36  1  0
 14 37  1  0
 17 38  1  0
 21 39  1  0
 23 40  1  0
 24 41  1  0
 26 42  1  0
 27 43  1  0
M  END
>  <Batch_No>  (108) 
AP-064/41684892

>  <EC50_nM>  (108) 
ND

>  <Set>  (108) 
Drug-like

>  <Molecular_Weight>  (108) 
381.81234

>  <ALogP>  (108) 
2.896

$$$$
MMV665826
     RDKit          3D

 41 43  0  0  0  0  0  0  0  0999 V2000
    6.6833   -0.4879   -1.0850 C   0  0  0  0  0  0  0  0  0  0  0  0
    5.3450   -0.1482   -1.3700 O   0  0  0  0  0  0  0  0  0  0  0  0
    4.4203    0.1900   -0.4165 C   0  0  0  0  0  0  0  0  0  0  0  0
    4.8315    0.1967    0.9034 C   0  0  0  0  0  0  0  0  0  0  0  0
    3.8818    0.5405    1.8422 C   0  0  0  0  0  0  0  0  0  0  0  0
    2.5832    0.8582    1.4347 C   0  0  0  0  0  0  0  0  0  0  0  0
    2.1881    0.8483    0.1273 C   0  0  0  0  0  0  0  0  0  0  0  0
    0.9010    1.1563   -0.3527 N   0  0  0  0  0  0  0  0  0  0  0  0
   -0.2140    1.5316    0.4323 C   0  0  0  0  0  0  0  0  0  0  0  0
   -0.1841    1.6362    1.6776 O   0  0  0  0  0  0  0  0  0  0  0  0
   -1.5361    1.8328   -0.2273 C   0  0  0  0  0  0  0  0  0  0  0  0
   -2.3397    0.6386   -0.3168 N   0  0  0  0  0  0  0  0  0  0  0  0
   -2.3642   -0.2508   -1.3241 C   0  0  0  0  0  0  0  0  0  0  0  0
   -1.5652   -0.2175   -2.5947 C   0  0  0  0  0  0  0  0  0  0  0  0
   -3.2557   -1.2670   -1.0591 C   0  0  0  0  0  0  0  0  0  0  0  0
   -3.5590   -2.4017   -1.8984 C   0  0  0  0  0  0  0  0  0  0  0  0
   -3.8132   -3.3002   -2.5668 N   0  0  0  0  0  0  0  0  0  0  0  0
   -3.8007   -0.9834    0.1686 C   0  0  0  0  0  0  0  0  0  0  0  0
   -4.7517   -1.6790    0.9085 C   0  0  0  0  0  0  0  0  0  0  0  0
   -5.1432   -1.1835    2.1342 C   0  0  0  0  0  0  0  0  0  0  0  0
   -4.5721   -0.0071    2.5832 C   0  0  0  0  0  0  0  0  0  0  0  0
   -3.6206    0.6769    1.8287 C   0  0  0  0  0  0  0  0  0  0  0  0
   -3.2297    0.1811    0.6039 C   0  0  0  0  0  0  0  0  0  0  0  0
    3.1507    0.5013   -0.8086 C   0  0  0  0  0  0  0  0  0  0  0  0
    7.1331    0.1607   -0.3316 H   0  0  0  0  0  0  0  0  0  0  0  0
    7.2731   -0.4645   -2.0401 H   0  0  0  0  0  0  0  0  0  0  0  0
    6.6532   -1.5483   -0.7114 H   0  0  0  0  0  0  0  0  0  0  0  0
    5.8238   -0.0451    1.2277 H   0  0  0  0  0  0  0  0  0  0  0  0
    4.1367    0.5673    2.9127 H   0  0  0  0  0  0  0  0  0  0  0  0
    1.9036    1.1148    2.2232 H   0  0  0  0  0  0  0  0  0  0  0  0
    0.7170    1.1119   -1.3993 H   0  0  0  0  0  0  0  0  0  0  0  0
   -1.9941    2.6564    0.3446 H   0  0  0  0  0  0  0  0  0  0  0  0
   -1.3599    2.2566   -1.2504 H   0  0  0  0  0  0  0  0  0  0  0  0
   -2.1661   -0.6049   -3.4422 H   0  0  0  0  0  0  0  0  0  0  0  0
   -1.2349    0.8390   -2.7870 H   0  0  0  0  0  0  0  0  0  0  0  0
   -0.6848   -0.8866   -2.4960 H   0  0  0  0  0  0  0  0  0  0  0  0
   -5.1518   -2.5875    0.4946 H   0  0  0  0  0  0  0  0  0  0  0  0
   -5.8909   -1.7299    2.7164 H   0  0  0  0  0  0  0  0  0  0  0  0
   -4.9030    0.3565    3.5540 H   0  0  0  0  0  0  0  0  0  0  0  0
   -3.2047    1.6024    2.2367 H   0  0  0  0  0  0  0  0  0  0  0  0
    2.9140    0.4696   -1.8761 H   0  0  0  0  0  0  0  0  0  0  0  0
  1  2  1  0
  2  3  1  0
  3  4  2  0
  4  5  1  0
  5  6  2  0
  6  7  1  0
  7  8  1  0
  8  9  1  0
  9 10  2  0
  9 11  1  0
 11 12  1  0
 12 13  1  0
 13 14  1  0
 13 15  2  0
 15 16  1  0
 16 17  3  0
 15 18  1  0
 18 19  2  0
 19 20  1  0
 20 21  2  0
 21 22  1  0
 22 23  2  0
  7 24  2  0
 24  3  1  0
 23 12  1  0
 23 18  1  0
  1 25  1  0
  1 26  1  0
  1 27  1  0
  4 28  1  0
  5 29  1  0
  6 30  1  0
  8 31  1  0
 11 32  1  0
 11 33  1  0
 14 34  1  0
 14 35  1  0
 14 36  1  0
 19 37  1  0
 20 38  1  0
 21 39  1  0
 22 40  1  0
 24 41  1  0
M  END
>  <Batch_No>  (109) 
OSSK_454135

>  <EC50_nM>  (109) 
1090

>  <Set>  (109) 
Drug-like

>  <Molecular_Weight>  (109) 
319.35717

>  <ALogP>  (109) 
2.973

$$$$
MMV665807
     RDKit          3D

 30 31  0  0  0  0  0  0  0  0999 V2000
   -2.3313   -0.2149   -2.2222 O   0  0  0  0  0  0  0  0  0  0  0  0
   -2.9939    0.1141   -1.0593 C   0  0  0  0  0  0  0  0  0  0  0  0
   -4.3516    0.3884   -1.1782 C   0  0  0  0  0  0  0  0  0  0  0  0
   -5.0985    0.7258   -0.0767 C   0  0  0  0  0  0  0  0  0  0  0  0
   -4.4423    0.7777    1.1349 C   0  0  0  0  0  0  0  0  0  0  0  0
   -5.3585    1.2037    2.5624 Cl  0  0  0  0  0  0  0  0  0  0  0  0
   -3.1038    0.5066    1.2474 C   0  0  0  0  0  0  0  0  0  0  0  0
   -2.3264    0.1608    0.1346 C   0  0  0  0  0  0  0  0  0  0  0  0
   -0.9299   -0.1065    0.3491 C   0  0  0  0  0  0  0  0  0  0  0  0
   -0.4676   -0.0162    1.5386 O   0  0  0  0  0  0  0  0  0  0  0  0
    0.0176   -0.4683   -0.6342 N   0  0  0  0  0  0  0  0  0  0  0  0
    1.3954   -0.7144   -0.3119 C   0  0  0  0  0  0  0  0  0  0  0  0
    1.8543   -1.9710    0.0334 C   0  0  0  0  0  0  0  0  0  0  0  0
    3.2097   -2.1444    0.3366 C   0  0  0  0  0  0  0  0  0  0  0  0
    4.0797   -1.0547    0.2879 C   0  0  0  0  0  0  0  0  0  0  0  0
    3.6214    0.2038   -0.0577 C   0  0  0  0  0  0  0  0  0  0  0  0
    2.2815    0.3440   -0.3511 C   0  0  0  0  0  0  0  0  0  0  0  0
    4.5886    1.3289   -0.0943 C   0  0  0  0  0  0  0  0  0  0  0  0
    5.6321    0.9756   -0.9266 F   0  0  0  0  0  0  0  0  0  0  0  0
    5.0029    1.5647    1.1921 F   0  0  0  0  0  0  0  0  0  0  0  0
    3.9073    2.4275   -0.5870 F   0  0  0  0  0  0  0  0  0  0  0  0
   -2.0284    0.5081   -2.8875 H   0  0  0  0  0  0  0  0  0  0  0  0
   -4.8525    0.3416   -2.1477 H   0  0  0  0  0  0  0  0  0  0  0  0
   -6.1505    0.9365   -0.1800 H   0  0  0  0  0  0  0  0  0  0  0  0
   -2.6653    0.5696    2.2340 H   0  0  0  0  0  0  0  0  0  0  0  0
   -0.2487   -0.5692   -1.6247 H   0  0  0  0  0  0  0  0  0  0  0  0
    1.1721   -2.8061    0.0677 H   0  0  0  0  0  0  0  0  0  0  0  0
    3.5454   -3.1387    0.6044 H   0  0  0  0  0  0  0  0  0  0  0  0
    5.1284   -1.1795    0.5206 H   0  0  0  0  0  0  0  0  0  0  0  0
    1.9128    1.3066   -0.6190 H   0  0  0  0  0  0  0  0  0  0  0  0
  1  2  1  0
  2  3  2  0
  3  4  1  0
  4  5  2  0
  5  6  1  0
  5  7  1  0
  7  8  2  0
  8  9  1  0
  9 10  2  0
  9 11  1  0
 11 12  1  0
 12 13  2  0
 13 14  1  0
 14 15  2  0
 15 16  1  0
 16 17  2  0
 16 18  1  0
 18 19  1  0
 18 20  1  0
 18 21  1  0
  8  2  1  0
 17 12  1  0
  1 22  1  0
  3 23  1  0
  4 24  1  0
  7 25  1  0
 11 26  1  0
 13 27  1  0
 14 28  1  0
 15 29  1  0
 17 30  1  0
M  END
>  <Batch_No>  (110) 
OSSK_695730

>  <EC50_nM>  (110) 
ND

>  <Set>  (110) 
Drug-like

>  <Molecular_Weight>  (110) 
315.67496

>  <ALogP>  (110) 
3.979

$$$$
MMV665946
     RDKit          3D

 57 60  0  0  0  0  0  0  0  0999 V2000
   -7.7049   -0.1166   -1.4794 C   0  0  0  0  0  0  0  0  0  0  0  0
   -7.4084    0.2425   -0.0513 C   0  0  0  0  0  0  0  0  0  0  0  0
   -6.5145   -0.4641    0.5921 C   0  0  0  0  0  0  0  0  0  0  0  0
   -5.7999   -1.5944   -0.0502 C   0  0  0  0  0  0  0  0  0  0  0  0
   -4.3641   -1.4317   -0.0919 N   0  0  0  0  0  0  0  0  0  0  0  0
   -3.8683   -1.5126    1.2633 C   0  0  0  0  0  0  0  0  0  0  0  0
   -2.3880   -1.2589    1.3453 C   0  0  0  0  0  0  0  0  0  0  0  0
   -2.1573    0.1734    0.8487 C   0  0  0  0  0  0  0  0  0  0  0  0
   -2.6010    0.1978   -0.5940 C   0  0  0  0  0  0  0  0  0  0  0  0
   -4.0560   -0.1901   -0.7354 C   0  0  0  0  0  0  0  0  0  0  0  0
   -0.6992    0.5005    0.9097 C   0  0  0  0  0  0  0  0  0  0  0  0
   -0.3591    1.4706    1.6213 O   0  0  0  0  0  0  0  0  0  0  0  0
    0.2233   -0.2785    0.1801 N   0  0  0  0  0  0  0  0  0  0  0  0
    1.6184   -0.1048    0.1328 C   0  0  0  0  0  0  0  0  0  0  0  0
    2.3333    0.8516    0.8099 C   0  0  0  0  0  0  0  0  0  0  0  0
    3.7211    0.9666    0.7141 C   0  0  0  0  0  0  0  0  0  0  0  0
    4.4387    0.1014   -0.0836 C   0  0  0  0  0  0  0  0  0  0  0  0
    3.7187   -0.8579   -0.7619 C   0  0  0  0  0  0  0  0  0  0  0  0
    2.3476   -0.9682   -0.6650 C   0  0  0  0  0  0  0  0  0  0  0  0
    5.8858    0.2332   -0.1737 C   0  0  0  0  0  0  0  0  0  0  0  0
    6.7385   -0.5136   -0.8995 N   0  0  0  0  0  0  0  0  0  0  0  0
    7.9992   -0.0816   -0.7211 C   0  0  0  0  0  0  0  0  0  0  0  0
    9.2199   -0.4879   -1.2213 C   0  0  0  0  0  0  0  0  0  0  0  0
   10.3827    0.1702   -0.8460 C   0  0  0  0  0  0  0  0  0  0  0  0
   10.2731    1.2211    0.0254 C   0  0  0  0  0  0  0  0  0  0  0  0
    9.0620    1.6320    0.5281 C   0  0  0  0  0  0  0  0  0  0  0  0
    7.9142    0.9751    0.1515 C   0  0  0  0  0  0  0  0  0  0  0  0
    6.6164    1.1392    0.4635 N   0  0  0  0  0  0  0  0  0  0  0  0
   -8.1302    1.3698    0.5748 C   0  0  0  0  0  0  0  0  0  0  0  0
   -8.4734    0.5633   -1.9103 H   0  0  0  0  0  0  0  0  0  0  0  0
   -8.0954   -1.1515   -1.5334 H   0  0  0  0  0  0  0  0  0  0  0  0
   -6.7517    0.0363   -2.0238 H   0  0  0  0  0  0  0  0  0  0  0  0
   -6.2997   -0.2038    1.6285 H   0  0  0  0  0  0  0  0  0  0  0  0
   -6.1827   -1.7072   -1.0855 H   0  0  0  0  0  0  0  0  0  0  0  0
   -6.0964   -2.5192    0.4866 H   0  0  0  0  0  0  0  0  0  0  0  0
   -4.0306   -2.5640    1.6029 H   0  0  0  0  0  0  0  0  0  0  0  0
   -4.4017   -0.8550    1.9594 H   0  0  0  0  0  0  0  0  0  0  0  0
   -2.0550   -1.3782    2.3782 H   0  0  0  0  0  0  0  0  0  0  0  0
   -1.8996   -1.9798    0.6314 H   0  0  0  0  0  0  0  0  0  0  0  0
   -2.7406    0.8434    1.4846 H   0  0  0  0  0  0  0  0  0  0  0  0
   -1.9836   -0.5238   -1.1622 H   0  0  0  0  0  0  0  0  0  0  0  0
   -2.5022    1.2220   -1.0198 H   0  0  0  0  0  0  0  0  0  0  0  0
   -4.2290   -0.3402   -1.8373 H   0  0  0  0  0  0  0  0  0  0  0  0
   -4.6513    0.6717   -0.4410 H   0  0  0  0  0  0  0  0  0  0  0  0
   -0.1986   -1.0733   -0.3843 H   0  0  0  0  0  0  0  0  0  0  0  0
    1.8530    1.5616    1.4511 H   0  0  0  0  0  0  0  0  0  0  0  0
    4.2449    1.7525    1.2807 H   0  0  0  0  0  0  0  0  0  0  0  0
    4.2435   -1.5434   -1.3876 H   0  0  0  0  0  0  0  0  0  0  0  0
    1.8649   -1.7645   -1.2431 H   0  0  0  0  0  0  0  0  0  0  0  0
    9.2511   -1.3292   -1.9091 H   0  0  0  0  0  0  0  0  0  0  0  0
   11.3530   -0.1336   -1.2292 H   0  0  0  0  0  0  0  0  0  0  0  0
   11.1495    1.7569    0.3391 H   0  0  0  0  0  0  0  0  0  0  0  0
    8.9683    2.4515    1.2082 H   0  0  0  0  0  0  0  0  0  0  0  0
    6.2835    1.8801    1.1129 H   0  0  0  0  0  0  0  0  0  0  0  0
   -7.4778    2.2062    0.8744 H   0  0  0  0  0  0  0  0  0  0  0  0
   -8.6713    0.9468    1.4664 H   0  0  0  0  0  0  0  0  0  0  0  0
   -8.9134    1.7906   -0.0770 H   0  0  0  0  0  0  0  0  0  0  0  0
  1  2  1  0
  2  3  2  3
  3  4  1  0
  4  5  1  0
  5  6  1  0
  6  7  1  0
  7  8  1  0
  8  9  1  0
  9 10  1  0
  8 11  1  0
 11 12  2  0
 11 13  1  0
 13 14  1  0
 14 15  2  0
 15 16  1  0
 16 17  2  0
 17 18  1  0
 18 19  2  0
 17 20  1  0
 20 21  2  0
 21 22  1  0
 22 23  2  0
 23 24  1  0
 24 25  2  0
 25 26  1  0
 26 27  2  0
 27 28  1  0
  2 29  1  0
 10  5  1  0
 19 14  1  0
 28 20  1  0
 27 22  1  0
  1 30  1  0
  1 31  1  0
  1 32  1  0
  3 33  1  0
  4 34  1  0
  4 35  1  0
  6 36  1  0
  6 37  1  0
  7 38  1  0
  7 39  1  0
  8 40  1  0
  9 41  1  0
  9 42  1  0
 10 43  1  0
 10 44  1  0
 13 45  1  0
 15 46  1  0
 16 47  1  0
 18 48  1  0
 19 49  1  0
 23 50  1  0
 24 51  1  0
 25 52  1  0
 26 53  1  0
 28 54  1  0
 29 55  1  0
 29 56  1  0
 29 57  1  0
M  END
>  <Batch_No>  (111) 
65099020

>  <EC50_nM>  (111) 
1160

>  <Set>  (111) 
Drug-like

>  <Molecular_Weight>  (111) 
388.50532

>  <ALogP>  (111) 
4.483

$$$$
MMV665935
     RDKit          3D

 30 32  0  0  0  0  0  0  0  0999 V2000
    6.2060   -0.7800   -0.3284 F   0  0  0  0  0  0  0  0  0  0  0  0
    5.4942    0.3997   -0.2175 C   0  0  0  0  0  0  0  0  0  0  0  0
    5.9350    1.3088   -1.1524 F   0  0  0  0  0  0  0  0  0  0  0  0
    5.7990    0.8921    1.0596 F   0  0  0  0  0  0  0  0  0  0  0  0
    4.0245    0.1921   -0.2841 C   0  0  0  0  0  0  0  0  0  0  0  0
    3.1942    0.7373    0.6695 C   0  0  0  0  0  0  0  0  0  0  0  0
    1.8166    0.5621    0.6371 C   0  0  0  0  0  0  0  0  0  0  0  0
    1.2154   -0.1693   -0.3572 C   0  0  0  0  0  0  0  0  0  0  0  0
   -0.1733   -0.3880   -0.4723 N   0  0  0  0  0  0  0  0  0  0  0  0
   -1.1789    0.3402    0.2077 C   0  0  0  0  0  0  0  0  0  0  0  0
   -0.9393    1.3975    1.0028 N   0  0  0  0  0  0  0  0  0  0  0  0
   -1.8830    2.0631    1.6305 N   0  0  0  0  0  0  0  0  0  0  0  0
   -3.1683    1.7557    1.5405 N   0  0  0  0  0  0  0  0  0  0  0  0
   -3.4918    0.6986    0.7556 C   0  0  0  0  0  0  0  0  0  0  0  0
   -4.8322    0.3906    0.6746 C   0  0  0  0  0  0  0  0  0  0  0  0
   -5.2551   -0.6748   -0.1022 C   0  0  0  0  0  0  0  0  0  0  0  0
   -4.2822   -1.3819   -0.7653 C   0  0  0  0  0  0  0  0  0  0  0  0
   -2.9473   -1.0737   -0.6834 C   0  0  0  0  0  0  0  0  0  0  0  0
   -2.5128   -0.0217    0.0812 C   0  0  0  0  0  0  0  0  0  0  0  0
    2.0694   -0.7146   -1.3149 C   0  0  0  0  0  0  0  0  0  0  0  0
    3.4325   -0.5455   -1.2887 C   0  0  0  0  0  0  0  0  0  0  0  0
    3.6457    1.3119    1.4552 H   0  0  0  0  0  0  0  0  0  0  0  0
    1.2648    1.0219    1.4298 H   0  0  0  0  0  0  0  0  0  0  0  0
   -0.4581   -1.1619   -1.1254 H   0  0  0  0  0  0  0  0  0  0  0  0
   -5.5646    0.9709    1.2119 H   0  0  0  0  0  0  0  0  0  0  0  0
   -6.2992   -0.9555   -0.1958 H   0  0  0  0  0  0  0  0  0  0  0  0
   -4.6130   -2.2163   -1.3740 H   0  0  0  0  0  0  0  0  0  0  0  0
   -2.2592   -1.6720   -1.2260 H   0  0  0  0  0  0  0  0  0  0  0  0
    1.6814   -1.3144   -2.1463 H   0  0  0  0  0  0  0  0  0  0  0  0
    4.0796   -0.9731   -2.0363 H   0  0  0  0  0  0  0  0  0  0  0  0
  1  2  1  0
  2  3  1  0
  2  4  1  0
  2  5  1  0
  5  6  2  0
  6  7  1  0
  7  8  2  0
  8  9  1  0
  9 10  1  0
 10 11  2  0
 11 12  1  0
 12 13  2  0
 13 14  1  0
 14 15  2  0
 15 16  1  0
 16 17  2  0
 17 18  1  0
 18 19  2  0
  8 20  1  0
 20 21  2  0
 21  5  1  0
 19 10  1  0
 19 14  1  0
  6 22  1  0
  7 23  1  0
  9 24  1  0
 15 25  1  0
 16 26  1  0
 17 27  1  0
 18 28  1  0
 20 29  1  0
 21 30  1  0
M  END
>  <Batch_No>  (112) 
1L-310S

>  <EC50_nM>  (112) 
ND

>  <Set>  (112) 
Drug-like

>  <Molecular_Weight>  (112) 
290.24326

>  <ALogP>  (112) 
3.126

$$$$
MMV666102
     RDKit          3D

 35 37  0  0  0  0  0  0  0  0999 V2000
   -5.3700    0.5848    1.1325 C   0  0  0  0  0  0  0  0  0  0  0  0
   -4.6581    0.0611   -0.0272 N   0  0  0  0  0  0  0  0  0  0  0  0
   -5.4464   -0.4172   -1.1430 C   0  0  0  0  0  0  0  0  0  0  0  0
   -3.2500    0.0326   -0.0363 C   0  0  0  0  0  0  0  0  0  0  0  0
   -2.5488   -0.4616   -1.1297 C   0  0  0  0  0  0  0  0  0  0  0  0
   -1.1505   -0.4868   -1.1316 C   0  0  0  0  0  0  0  0  0  0  0  0
   -0.4747   -0.0077   -0.0184 C   0  0  0  0  0  0  0  0  0  0  0  0
   -1.1504    0.4811    1.0636 C   0  0  0  0  0  0  0  0  0  0  0  0
   -2.5355    0.4932    1.0365 C   0  0  0  0  0  0  0  0  0  0  0  0
    0.9839   -0.0334   -0.0193 C   0  0  0  0  0  0  0  0  0  0  0  0
    1.7950    0.3810    0.9526 N   0  0  0  0  0  0  0  0  0  0  0  0
    3.0936    0.2035    0.6010 C   0  0  0  0  0  0  0  0  0  0  0  0
    4.3009    0.4596    1.2296 C   0  0  0  0  0  0  0  0  0  0  0  0
    5.4768    0.1437    0.5592 C   0  0  0  0  0  0  0  0  0  0  0  0
    6.7337    0.4040    1.1992 N   0  0  0  0  0  0  0  0  0  0  0  0
    5.4743   -0.4149   -0.7080 C   0  0  0  0  0  0  0  0  0  0  0  0
    4.2454   -0.6579   -1.3076 C   0  0  0  0  0  0  0  0  0  0  0  0
    3.0477   -0.3574   -0.6730 C   0  0  0  0  0  0  0  0  0  0  0  0
    1.7635   -0.4908   -1.0261 N   0  0  0  0  0  0  0  0  0  0  0  0
   -4.9860    1.6236    1.2894 H   0  0  0  0  0  0  0  0  0  0  0  0
   -5.2233   -0.0424    2.0392 H   0  0  0  0  0  0  0  0  0  0  0  0
   -6.4474    0.7138    0.9165 H   0  0  0  0  0  0  0  0  0  0  0  0
   -6.4194    0.1465   -1.1661 H   0  0  0  0  0  0  0  0  0  0  0  0
   -5.7202   -1.4653   -0.9865 H   0  0  0  0  0  0  0  0  0  0  0  0
   -4.9819   -0.2055   -2.1274 H   0  0  0  0  0  0  0  0  0  0  0  0
   -3.0469   -0.8402   -2.0079 H   0  0  0  0  0  0  0  0  0  0  0  0
   -0.6078   -0.8768   -1.9947 H   0  0  0  0  0  0  0  0  0  0  0  0
   -0.6330    0.8570    1.9364 H   0  0  0  0  0  0  0  0  0  0  0  0
   -3.0403    0.8916    1.9202 H   0  0  0  0  0  0  0  0  0  0  0  0
    4.3209    0.8935    2.2146 H   0  0  0  0  0  0  0  0  0  0  0  0
    6.7562    1.1569    1.9489 H   0  0  0  0  0  0  0  0  0  0  0  0
    7.5990   -0.1192    0.9467 H   0  0  0  0  0  0  0  0  0  0  0  0
    6.3919   -0.6651   -1.2394 H   0  0  0  0  0  0  0  0  0  0  0  0
    4.2689   -1.0911   -2.2894 H   0  0  0  0  0  0  0  0  0  0  0  0
    1.4392   -0.8945   -1.9547 H   0  0  0  0  0  0  0  0  0  0  0  0
  1  2  1  0
  2  3  1  0
  2  4  1  0
  4  5  2  0
  5  6  1  0
  6  7  2  0
  7  8  1  0
  8  9  2  0
  7 10  1  0
 10 11  2  0
 11 12  1  0
 12 13  2  0
 13 14  1  0
 14 15  1  0
 14 16  2  0
 16 17  1  0
 17 18  2  0
 18 19  1  0
  9  4  1  0
 19 10  1  0
 18 12  1  0
  1 20  1  0
  1 21  1  0
  1 22  1  0
  3 23  1  0
  3 24  1  0
  3 25  1  0
  5 26  1  0
  6 27  1  0
  8 28  1  0
  9 29  1  0
 13 30  1  0
 15 31  1  0
 15 32  1  0
 16 33  1  0
 17 34  1  0
 19 35  1  0
M  END
>  <Batch_No>  (113) 
BAS 00255317

>  <EC50_nM>  (113) 
ND

>  <Set>  (113) 
Drug-like

>  <Molecular_Weight>  (113) 
252.31434

>  <ALogP>  (113) 
2.686

$$$$
MMV666061
     RDKit          3D

 57 60  0  0  0  0  0  0  0  0999 V2000
   -5.4979   -1.2845    2.2057 C   0  0  0  0  0  0  0  0  0  0  0  0
   -4.7209   -0.9907    1.0660 O   0  0  0  0  0  0  0  0  0  0  0  0
   -5.1016    0.0622    0.2527 C   0  0  0  0  0  0  0  0  0  0  0  0
   -6.2329    0.8147    0.5546 C   0  0  0  0  0  0  0  0  0  0  0  0
   -6.6561    1.8699   -0.2232 C   0  0  0  0  0  0  0  0  0  0  0  0
   -5.9051    2.1674   -1.3400 C   0  0  0  0  0  0  0  0  0  0  0  0
   -4.7802    1.4312   -1.6534 C   0  0  0  0  0  0  0  0  0  0  0  0
   -4.0575    1.7796   -2.8003 O   0  0  0  0  0  0  0  0  0  0  0  0
   -4.3567    0.3594   -0.8564 C   0  0  0  0  0  0  0  0  0  0  0  0
   -3.1333   -0.3310   -1.2913 C   0  0  0  0  0  0  0  0  0  0  0  0
   -1.9320    0.0073   -0.6503 N   0  0  0  0  0  0  0  0  0  0  0  0
   -1.7884   -0.2612    0.7231 C   0  0  0  0  0  0  0  0  0  0  0  0
   -0.2999   -0.0619    1.0197 C   0  0  0  0  0  0  0  0  0  0  0  0
    0.3952   -0.3998   -0.2897 C   0  0  0  0  0  0  0  0  0  0  0  0
    0.8031   -1.8384   -0.3484 C   0  0  0  0  0  0  0  0  0  0  0  0
    2.2158   -2.1000    0.1254 C   0  0  0  0  0  0  0  0  0  0  0  0
    3.0833   -1.1760   -0.7222 C   0  0  0  0  0  0  0  0  0  0  0  0
    2.8177    0.1501   -0.3147 N   0  0  0  0  0  0  0  0  0  0  0  0
    3.4455    0.6164    0.8691 C   0  0  0  0  0  0  0  0  0  0  0  0
    4.9176    0.5483    0.7116 C   0  0  0  0  0  0  0  0  0  0  0  0
    5.6769   -0.5426    1.0847 C   0  0  0  0  0  0  0  0  0  0  0  0
    7.0504   -0.5869    0.9261 C   0  0  0  0  0  0  0  0  0  0  0  0
    7.7291    0.4815    0.3769 C   0  0  0  0  0  0  0  0  0  0  0  0
    9.0732    0.4207    0.2298 F   0  0  0  0  0  0  0  0  0  0  0  0
    6.9892    1.5788   -0.0012 C   0  0  0  0  0  0  0  0  0  0  0  0
    5.6284    1.6164    0.1585 C   0  0  0  0  0  0  0  0  0  0  0  0
    1.4725    0.5961   -0.5049 C   0  0  0  0  0  0  0  0  0  0  0  0
   -0.7104   -0.2393   -1.3250 C   0  0  0  0  0  0  0  0  0  0  0  0
   -5.0813   -2.1070    2.8046 H   0  0  0  0  0  0  0  0  0  0  0  0
   -6.5145   -1.5990    1.8864 H   0  0  0  0  0  0  0  0  0  0  0  0
   -5.6499   -0.3536    2.8148 H   0  0  0  0  0  0  0  0  0  0  0  0
   -6.8349    0.5830    1.4421 H   0  0  0  0  0  0  0  0  0  0  0  0
   -7.5288    2.4591   -0.0006 H   0  0  0  0  0  0  0  0  0  0  0  0
   -6.1913    2.9963   -1.9997 H   0  0  0  0  0  0  0  0  0  0  0  0
   -3.2243    2.3369   -2.6740 H   0  0  0  0  0  0  0  0  0  0  0  0
   -3.3264   -1.4297   -1.0709 H   0  0  0  0  0  0  0  0  0  0  0  0
   -2.9773   -0.2539   -2.3948 H   0  0  0  0  0  0  0  0  0  0  0  0
   -2.0565   -1.3444    0.9051 H   0  0  0  0  0  0  0  0  0  0  0  0
   -2.4029    0.3951    1.3333 H   0  0  0  0  0  0  0  0  0  0  0  0
    0.0491   -0.6945    1.8412 H   0  0  0  0  0  0  0  0  0  0  0  0
   -0.1772    0.9956    1.3092 H   0  0  0  0  0  0  0  0  0  0  0  0
    0.1329   -2.4589    0.2782 H   0  0  0  0  0  0  0  0  0  0  0  0
    0.7709   -2.1465   -1.4327 H   0  0  0  0  0  0  0  0  0  0  0  0
    2.3131   -1.8186    1.1741 H   0  0  0  0  0  0  0  0  0  0  0  0
    2.4318   -3.1683   -0.0953 H   0  0  0  0  0  0  0  0  0  0  0  0
    4.1510   -1.4024   -0.6258 H   0  0  0  0  0  0  0  0  0  0  0  0
    2.7596   -1.2910   -1.7797 H   0  0  0  0  0  0  0  0  0  0  0  0
    3.0957    1.6045    1.1992 H   0  0  0  0  0  0  0  0  0  0  0  0
    3.2125   -0.0803    1.7274 H   0  0  0  0  0  0  0  0  0  0  0  0
    5.1968   -1.4014    1.5208 H   0  0  0  0  0  0  0  0  0  0  0  0
    7.6086   -1.4773    1.2384 H   0  0  0  0  0  0  0  0  0  0  0  0
    7.5432    2.4119   -0.4320 H   0  0  0  0  0  0  0  0  0  0  0  0
    5.0795    2.4831   -0.1453 H   0  0  0  0  0  0  0  0  0  0  0  0
    1.3233    1.4919    0.1329 H   0  0  0  0  0  0  0  0  0  0  0  0
    1.4028    0.9980   -1.5541 H   0  0  0  0  0  0  0  0  0  0  0  0
   -0.4772    0.6790   -1.9268 H   0  0  0  0  0  0  0  0  0  0  0  0
   -0.7532   -1.0954   -2.0383 H   0  0  0  0  0  0  0  0  0  0  0  0
  1  2  1  0
  2  3  1  0
  3  4  2  0
  4  5  1  0
  5  6  2  0
  6  7  1  0
  7  8  1  0
  7  9  2  0
  9 10  1  0
 10 11  1  0
 11 12  1  0
 12 13  1  0
 13 14  1  0
 14 15  1  0
 15 16  1  0
 16 17  1  0
 17 18  1  0
 18 19  1  0
 19 20  1  0
 20 21  2  0
 21 22  1  0
 22 23  2  0
 23 24  1  0
 23 25  1  0
 25 26  2  0
 18 27  1  0
 14 28  1  0
  9  3  1  0
 28 11  1  0
 27 14  1  0
 26 20  1  0
  1 29  1  0
  1 30  1  0
  1 31  1  0
  4 32  1  0
  5 33  1  0
  6 34  1  0
  8 35  1  0
 10 36  1  0
 10 37  1  0
 12 38  1  0
 12 39  1  0
 13 40  1  0
 13 41  1  0
 15 42  1  0
 15 43  1  0
 16 44  1  0
 16 45  1  0
 17 46  1  0
 17 47  1  0
 19 48  1  0
 19 49  1  0
 21 50  1  0
 22 51  1  0
 25 52  1  0
 26 53  1  0
 27 54  1  0
 27 55  1  0
 28 56  1  0
 28 57  1  0
M  END
>  <Batch_No>  (114) 
45705462

>  <EC50_nM>  (114) 
530

>  <Set>  (114) 
Drug-like

>  <Molecular_Weight>  (114) 
384.48696

>  <ALogP>  (114) 
4.12

$$$$
MMV008149
     RDKit          3D

 49 52  0  0  0  0  0  0  0  0999 V2000
   -0.7929   -3.1210    1.6985 C   0  0  0  0  0  0  0  0  0  0  0  0
   -1.1028   -2.0138    0.7396 C   0  0  0  0  0  0  0  0  0  0  0  0
   -2.3006   -1.8270    0.0909 C   0  0  0  0  0  0  0  0  0  0  0  0
   -3.4835   -2.7254    0.2593 C   0  0  0  0  0  0  0  0  0  0  0  0
   -2.2323   -0.7305   -0.6993 N   0  0  0  0  0  0  0  0  0  0  0  0
   -3.2679   -0.1882   -1.5446 C   0  0  0  0  0  0  0  0  0  0  0  0
   -4.1325    0.7963   -0.8851 C   0  0  0  0  0  0  0  0  0  0  0  0
   -3.8523    2.1676   -0.8808 C   0  0  0  0  0  0  0  0  0  0  0  0
   -4.6822    3.0755   -0.2526 C   0  0  0  0  0  0  0  0  0  0  0  0
   -5.8179    2.6311    0.3896 C   0  0  0  0  0  0  0  0  0  0  0  0
   -6.5982    3.5604    0.9901 F   0  0  0  0  0  0  0  0  0  0  0  0
   -6.1290    1.2880    0.4080 C   0  0  0  0  0  0  0  0  0  0  0  0
   -5.2814    0.4047   -0.2280 C   0  0  0  0  0  0  0  0  0  0  0  0
   -0.9777   -0.2223   -0.5457 C   0  0  0  0  0  0  0  0  0  0  0  0
   -0.3245    0.8655   -1.0807 C   0  0  0  0  0  0  0  0  0  0  0  0
    0.9838    1.1927   -0.7690 C   0  0  0  0  0  0  0  0  0  0  0  0
    1.6872    0.4197    0.1075 C   0  0  0  0  0  0  0  0  0  0  0  0
    1.0593   -0.6772    0.6600 C   0  0  0  0  0  0  0  0  0  0  0  0
   -0.2632   -1.0030    0.3413 C   0  0  0  0  0  0  0  0  0  0  0  0
    3.0649    0.7843    0.4207 C   0  0  0  0  0  0  0  0  0  0  0  0
    3.5306    1.8071   -0.1454 O   0  0  0  0  0  0  0  0  0  0  0  0
    3.8848    0.0531    1.3155 N   0  0  0  0  0  0  0  0  0  0  0  0
    5.2341    0.5370    1.5275 C   0  0  0  0  0  0  0  0  0  0  0  0
    6.0437    0.5781    0.2892 C   0  0  0  0  0  0  0  0  0  0  0  0
    6.1324    1.5968   -0.5320 O   0  0  0  0  0  0  0  0  0  0  0  0
    6.9417    1.2405   -1.5012 C   0  0  0  0  0  0  0  0  0  0  0  0
    7.3993   -0.0463   -1.3156 C   0  0  0  0  0  0  0  0  0  0  0  0
    6.8129   -0.4784   -0.1468 C   0  0  0  0  0  0  0  0  0  0  0  0
   -0.8517   -4.1098    1.2083 H   0  0  0  0  0  0  0  0  0  0  0  0
   -1.5360   -3.0238    2.5251 H   0  0  0  0  0  0  0  0  0  0  0  0
    0.2347   -3.0035    2.0832 H   0  0  0  0  0  0  0  0  0  0  0  0
   -3.2104   -3.7923    0.2635 H   0  0  0  0  0  0  0  0  0  0  0  0
   -4.1678   -2.5803   -0.6000 H   0  0  0  0  0  0  0  0  0  0  0  0
   -4.0290   -2.4780    1.1958 H   0  0  0  0  0  0  0  0  0  0  0  0
   -2.8478    0.2717   -2.4724 H   0  0  0  0  0  0  0  0  0  0  0  0
   -3.9403   -1.0140   -1.8906 H   0  0  0  0  0  0  0  0  0  0  0  0
   -2.9743    2.5366   -1.3740 H   0  0  0  0  0  0  0  0  0  0  0  0
   -4.4459    4.1361   -0.2613 H   0  0  0  0  0  0  0  0  0  0  0  0
   -7.0320    0.9399    0.9192 H   0  0  0  0  0  0  0  0  0  0  0  0
   -5.5829   -0.6507   -0.1785 H   0  0  0  0  0  0  0  0  0  0  0  0
   -0.8450    1.5068   -1.7811 H   0  0  0  0  0  0  0  0  0  0  0  0
    1.4250    2.0706   -1.2374 H   0  0  0  0  0  0  0  0  0  0  0  0
    1.5778   -1.3066    1.3507 H   0  0  0  0  0  0  0  0  0  0  0  0
    3.5038   -0.7961    1.7878 H   0  0  0  0  0  0  0  0  0  0  0  0
    5.1648    1.5755    1.9115 H   0  0  0  0  0  0  0  0  0  0  0  0
    5.7733   -0.0410    2.2955 H   0  0  0  0  0  0  0  0  0  0  0  0
    7.2248    1.8607   -2.3437 H   0  0  0  0  0  0  0  0  0  0  0  0
    8.0727   -0.6160   -1.9375 H   0  0  0  0  0  0  0  0  0  0  0  0
    6.9505   -1.4510    0.3048 H   0  0  0  0  0  0  0  0  0  0  0  0
  1  2  1  0
  2  3  2  0
  3  4  1  0
  3  5  1  0
  5  6  1  0
  6  7  1  0
  7  8  2  0
  8  9  1  0
  9 10  2  0
 10 11  1  0
 10 12  1  0
 12 13  2  0
  5 14  1  0
 14 15  2  0
 15 16  1  0
 16 17  2  0
 17 18  1  0
 18 19  2  0
 17 20  1  0
 20 21  2  0
 20 22  1  0
 22 23  1  0
 23 24  1  0
 24 25  1  0
 25 26  1  0
 26 27  2  0
 27 28  1  0
 19  2  1  0
 13  7  1  0
 19 14  1  0
 28 24  2  0
  1 29  1  0
  1 30  1  0
  1 31  1  0
  4 32  1  0
  4 33  1  0
  4 34  1  0
  6 35  1  0
  6 36  1  0
  8 37  1  0
  9 38  1  0
 12 39  1  0
 13 40  1  0
 15 41  1  0
 16 42  1  0
 18 43  1  0
 22 44  1  0
 23 45  1  0
 23 46  1  0
 26 47  1  0
 27 48  1  0
 28 49  1  0
M  END
>  <Batch_No>  (115) 
G119-1284

>  <EC50_nM>  (115) 
ND

>  <Set>  (115) 
Drug-like

>  <Molecular_Weight>  (115) 
376.42344

>  <ALogP>  (115) 
4.723

$$$$
MMV019074
     RDKit          3D

 62 65  0  0  0  0  0  0  0  0999 V2000
   -9.3502    0.0556    1.3084 C   0  0  0  0  0  0  0  0  0  0  0  0
   -8.5518    0.2457    0.0167 C   0  0  0  0  0  0  0  0  0  0  0  0
   -7.1866    0.4395    0.3532 N   0  0  0  0  0  0  0  0  0  0  0  0
   -6.4731   -0.6492    0.8947 C   0  0  0  0  0  0  0  0  0  0  0  0
   -5.3773   -1.2253    0.0452 C   0  0  0  0  0  0  0  0  0  0  0  0
   -4.7612   -0.1577   -0.7651 N   0  0  0  0  0  0  0  0  0  0  0  0
   -5.6960    0.6723   -1.4989 C   0  0  0  0  0  0  0  0  0  0  0  0
   -6.4938    1.3953   -0.4267 C   0  0  0  0  0  0  0  0  0  0  0  0
   -3.3548    0.0140   -0.7954 C   0  0  0  0  0  0  0  0  0  0  0  0
   -2.7015    0.9814   -1.5107 C   0  0  0  0  0  0  0  0  0  0  0  0
   -1.3248    1.0784   -1.4811 C   0  0  0  0  0  0  0  0  0  0  0  0
   -0.6321    2.1433   -2.2695 C   0  0  0  0  0  0  0  0  0  0  0  0
   -0.6105    0.1842   -0.7177 C   0  0  0  0  0  0  0  0  0  0  0  0
    0.7614    0.2886   -0.6921 C   0  0  0  0  0  0  0  0  0  0  0  0
    1.5631   -0.5800    0.0601 C   0  0  0  0  0  0  0  0  0  0  0  0
    2.9595   -0.4048    0.0357 N   0  0  0  0  0  0  0  0  0  0  0  0
    3.9312   -1.1488    0.7064 C   0  0  0  0  0  0  0  0  0  0  0  0
    3.6010   -2.1070    1.4384 O   0  0  0  0  0  0  0  0  0  0  0  0
    5.3766   -0.8815    0.6157 C   0  0  0  0  0  0  0  0  0  0  0  0
    6.2367   -1.6823    1.3385 C   0  0  0  0  0  0  0  0  0  0  0  0
    7.6191   -1.5045    1.3190 C   0  0  0  0  0  0  0  0  0  0  0  0
    8.1160   -0.4786    0.5360 C   0  0  0  0  0  0  0  0  0  0  0  0
    9.4944   -0.2785    0.4981 O   0  0  0  0  0  0  0  0  0  0  0  0
   10.3248   -1.1173    1.2494 C   0  0  0  0  0  0  0  0  0  0  0  0
    7.2680    0.3456   -0.2045 C   0  0  0  0  0  0  0  0  0  0  0  0
    7.8693    1.3351   -0.9476 O   0  0  0  0  0  0  0  0  0  0  0  0
    7.1058    2.2193   -1.7262 C   0  0  0  0  0  0  0  0  0  0  0  0
    5.9151    0.1143   -0.1391 C   0  0  0  0  0  0  0  0  0  0  0  0
    0.8853   -1.5406    0.7682 C   0  0  0  0  0  0  0  0  0  0  0  0
   -0.5093   -1.6493    0.7440 C   0  0  0  0  0  0  0  0  0  0  0  0
   -1.2668   -0.7894    0.0023 C   0  0  0  0  0  0  0  0  0  0  0  0
   -2.5984   -0.8309   -0.0678 N   0  0  0  0  0  0  0  0  0  0  0  0
   -8.9912   -0.8636    1.7782 H   0  0  0  0  0  0  0  0  0  0  0  0
   -9.1433    0.9705    1.9158 H   0  0  0  0  0  0  0  0  0  0  0  0
  -10.4159   -0.0064    1.0279 H   0  0  0  0  0  0  0  0  0  0  0  0
   -8.9356    1.1689   -0.4618 H   0  0  0  0  0  0  0  0  0  0  0  0
   -8.7351   -0.6063   -0.6691 H   0  0  0  0  0  0  0  0  0  0  0  0
   -6.0333   -0.4355    1.8922 H   0  0  0  0  0  0  0  0  0  0  0  0
   -7.2025   -1.4976    1.0526 H   0  0  0  0  0  0  0  0  0  0  0  0
   -5.7611   -2.0201   -0.5981 H   0  0  0  0  0  0  0  0  0  0  0  0
   -4.5771   -1.6526    0.6814 H   0  0  0  0  0  0  0  0  0  0  0  0
   -5.2591    1.3415   -2.2296 H   0  0  0  0  0  0  0  0  0  0  0  0
   -6.3738   -0.0650   -2.0239 H   0  0  0  0  0  0  0  0  0  0  0  0
   -7.2361    2.0814   -0.8805 H   0  0  0  0  0  0  0  0  0  0  0  0
   -5.7773    1.9386    0.2166 H   0  0  0  0  0  0  0  0  0  0  0  0
   -3.2715    1.6766   -2.1053 H   0  0  0  0  0  0  0  0  0  0  0  0
    0.0535    1.7004   -3.0310 H   0  0  0  0  0  0  0  0  0  0  0  0
   -0.0050    2.7024   -1.5367 H   0  0  0  0  0  0  0  0  0  0  0  0
   -1.3817    2.7720   -2.7650 H   0  0  0  0  0  0  0  0  0  0  0  0
    1.2145    1.0892   -1.2916 H   0  0  0  0  0  0  0  0  0  0  0  0
    3.3192    0.3952   -0.5696 H   0  0  0  0  0  0  0  0  0  0  0  0
    5.8883   -2.4946    1.9627 H   0  0  0  0  0  0  0  0  0  0  0  0
    8.2629   -2.1520    1.8983 H   0  0  0  0  0  0  0  0  0  0  0  0
   10.0776   -1.0951    2.3366 H   0  0  0  0  0  0  0  0  0  0  0  0
   11.3877   -0.8273    1.1537 H   0  0  0  0  0  0  0  0  0  0  0  0
   10.2276   -2.1437    0.8340 H   0  0  0  0  0  0  0  0  0  0  0  0
    6.1457    2.4963   -1.2806 H   0  0  0  0  0  0  0  0  0  0  0  0
    7.7455    3.1389   -1.8918 H   0  0  0  0  0  0  0  0  0  0  0  0
    6.9658    1.8042   -2.7456 H   0  0  0  0  0  0  0  0  0  0  0  0
    5.2802    0.7637   -0.7214 H   0  0  0  0  0  0  0  0  0  0  0  0
    1.3948   -2.2453    1.3675 H   0  0  0  0  0  0  0  0  0  0  0  0
   -1.0029   -2.4215    1.3171 H   0  0  0  0  0  0  0  0  0  0  0  0
  1  2  1  0
  2  3  1  0
  3  4  1  0
  4  5  1  0
  5  6  1  0
  6  7  1  0
  7  8  1  0
  6  9  1  0
  9 10  2  0
 10 11  1  0
 11 12  1  0
 11 13  2  0
 13 14  1  0
 14 15  2  0
 15 16  1  0
 16 17  1  0
 17 18  2  0
 17 19  1  0
 19 20  2  0
 20 21  1  0
 21 22  2  0
 22 23  1  0
 23 24  1  0
 22 25  1  0
 25 26  1  0
 26 27  1  0
 25 28  2  0
 15 29  1  0
 29 30  2  0
 30 31  1  0
 31 32  2  0
  8  3  1  0
 32  9  1  0
 31 13  1  0
 28 19  1  0
  1 33  1  0
  1 34  1  0
  1 35  1  0
  2 36  1  0
  2 37  1  0
  4 38  1  0
  4 39  1  0
  5 40  1  0
  5 41  1  0
  7 42  1  0
  7 43  1  0
  8 44  1  0
  8 45  1  0
 10 46  1  0
 12 47  1  0
 12 48  1  0
 12 49  1  0
 14 50  1  0
 16 51  1  0
 20 52  1  0
 21 53  1  0
 24 54  1  0
 24 55  1  0
 24 56  1  0
 27 57  1  0
 27 58  1  0
 27 59  1  0
 28 60  1  0
 29 61  1  0
 30 62  1  0
M  END
>  <Batch_No>  (116) 
C095-0296

>  <EC50_nM>  (116) 
1860

>  <Set>  (116) 
Drug-like

>  <Molecular_Weight>  (116) 
434.53069

>  <ALogP>  (116) 
4.261

$$$$
MMV665914
     RDKit          3D

 60 63  0  0  0  0  0  0  0  0999 V2000
    4.5698   -3.7052    1.5534 C   0  0  0  0  0  0  0  0  0  0  0  0
    3.9484   -2.4670    1.2640 O   0  0  0  0  0  0  0  0  0  0  0  0
    4.7706   -1.3808    0.9971 C   0  0  0  0  0  0  0  0  0  0  0  0
    6.1646   -1.4868    1.0091 C   0  0  0  0  0  0  0  0  0  0  0  0
    6.9631   -0.3934    0.7407 C   0  0  0  0  0  0  0  0  0  0  0  0
    6.3913    0.8384    0.4524 C   0  0  0  0  0  0  0  0  0  0  0  0
    5.0160    0.9235    0.4451 C   0  0  0  0  0  0  0  0  0  0  0  0
    4.1933   -0.1613    0.7117 C   0  0  0  0  0  0  0  0  0  0  0  0
    2.7714   -0.0492    0.6982 N   0  0  0  0  0  0  0  0  0  0  0  0
    1.9359   -0.8214   -0.1957 C   0  0  0  0  0  0  0  0  0  0  0  0
    0.9709    0.0673   -0.9664 C   0  0  0  0  0  0  0  0  0  0  0  0
    0.4188    1.1105   -0.2361 N   0  0  0  0  0  0  0  0  0  0  0  0
    1.2016    1.7333    0.7530 C   0  0  0  0  0  0  0  0  0  0  0  0
    2.0642    0.8688    1.6026 C   0  0  0  0  0  0  0  0  0  0  0  0
   -0.9814    1.3479   -0.2287 C   0  0  0  0  0  0  0  0  0  0  0  0
   -1.8057    0.2220    0.2948 C   0  0  0  0  0  0  0  0  0  0  0  0
   -1.7484   -1.0316   -0.3450 N   0  0  0  0  0  0  0  0  0  0  0  0
   -2.8153   -2.1381    0.4910 S   0  0  0  0  0  0  0  0  0  0  0  0
   -2.3729   -2.3486    1.9019 O   0  0  0  0  0  0  0  0  0  0  0  0
   -2.7707   -3.4721   -0.2021 O   0  0  0  0  0  0  0  0  0  0  0  0
   -4.4641   -1.5570    0.4136 C   0  0  0  0  0  0  0  0  0  0  0  0
   -5.0078   -0.7209    1.3624 C   0  0  0  0  0  0  0  0  0  0  0  0
   -6.3333   -0.2909    1.2438 C   0  0  0  0  0  0  0  0  0  0  0  0
   -7.0974   -0.7082    0.1694 C   0  0  0  0  0  0  0  0  0  0  0  0
   -8.7767   -0.1897   -0.0206 Cl  0  0  0  0  0  0  0  0  0  0  0  0
   -6.5727   -1.5453   -0.7919 C   0  0  0  0  0  0  0  0  0  0  0  0
   -5.2633   -1.9522   -0.6477 C   0  0  0  0  0  0  0  0  0  0  0  0
   -1.4899    2.0615   -1.4035 C   0  0  0  0  0  0  0  0  0  0  0  0
   -0.7554    3.1373   -1.8719 C   0  0  0  0  0  0  0  0  0  0  0  0
   -1.1737    3.8440   -2.9540 C   0  0  0  0  0  0  0  0  0  0  0  0
   -2.3293    3.5128   -3.6089 C   0  0  0  0  0  0  0  0  0  0  0  0
   -3.0362    2.4638   -3.1442 N   0  0  0  0  0  0  0  0  0  0  0  0
   -2.6485    1.7505   -2.0816 C   0  0  0  0  0  0  0  0  0  0  0  0
    5.2999   -3.5398    2.3670 H   0  0  0  0  0  0  0  0  0  0  0  0
    5.1075   -4.1216    0.6694 H   0  0  0  0  0  0  0  0  0  0  0  0
    3.7763   -4.4352    1.7973 H   0  0  0  0  0  0  0  0  0  0  0  0
    6.6351   -2.4480    1.2339 H   0  0  0  0  0  0  0  0  0  0  0  0
    8.0386   -0.4542    0.7450 H   0  0  0  0  0  0  0  0  0  0  0  0
    7.0191    1.7109    0.2383 H   0  0  0  0  0  0  0  0  0  0  0  0
    4.5062    1.8662    0.2250 H   0  0  0  0  0  0  0  0  0  0  0  0
    2.5893   -1.3476   -0.9219 H   0  0  0  0  0  0  0  0  0  0  0  0
    1.3465   -1.5333    0.3953 H   0  0  0  0  0  0  0  0  0  0  0  0
    0.2825   -0.5836   -1.4919 H   0  0  0  0  0  0  0  0  0  0  0  0
    1.6152    0.5183   -1.7797 H   0  0  0  0  0  0  0  0  0  0  0  0
    1.8860    2.4659    0.2313 H   0  0  0  0  0  0  0  0  0  0  0  0
    0.5265    2.3816    1.3780 H   0  0  0  0  0  0  0  0  0  0  0  0
    1.5462    0.3373    2.4153 H   0  0  0  0  0  0  0  0  0  0  0  0
    2.7960    1.5418    2.1125 H   0  0  0  0  0  0  0  0  0  0  0  0
   -1.0802    2.1140    0.6111 H   0  0  0  0  0  0  0  0  0  0  0  0
   -2.8778    0.4837    0.4191 H   0  0  0  0  0  0  0  0  0  0  0  0
   -1.4635    0.0382    1.3582 H   0  0  0  0  0  0  0  0  0  0  0  0
   -2.0548   -1.0815   -1.3387 H   0  0  0  0  0  0  0  0  0  0  0  0
   -4.3869   -0.4019    2.2048 H   0  0  0  0  0  0  0  0  0  0  0  0
   -6.7722    0.3657    1.9819 H   0  0  0  0  0  0  0  0  0  0  0  0
   -7.1591   -1.8846   -1.6452 H   0  0  0  0  0  0  0  0  0  0  0  0
   -4.8447   -2.6162   -1.4088 H   0  0  0  0  0  0  0  0  0  0  0  0
    0.1807    3.4409   -1.3774 H   0  0  0  0  0  0  0  0  0  0  0  0
   -0.5753    4.6840   -3.2983 H   0  0  0  0  0  0  0  0  0  0  0  0
   -2.6353    4.0986   -4.4709 H   0  0  0  0  0  0  0  0  0  0  0  0
   -3.2389    0.9388   -1.7544 H   0  0  0  0  0  0  0  0  0  0  0  0
  1  2  1  0
  2  3  1  0
  3  4  2  0
  4  5  1  0
  5  6  2  0
  6  7  1  0
  7  8  2  0
  8  9  1  0
  9 10  1  0
 10 11  1  0
 11 12  1  0
 12 13  1  0
 13 14  1  0
 12 15  1  0
 15 16  1  0
 16 17  1  0
 17 18  1  0
 18 19  2  0
 18 20  2  0
 18 21  1  0
 21 22  2  0
 22 23  1  0
 23 24  2  0
 24 25  1  0
 24 26  1  0
 26 27  2  0
 15 28  1  0
 28 29  2  0
 29 30  1  0
 30 31  2  0
 31 32  1  0
 32 33  2  0
  8  3  1  0
 14  9  1  0
 27 21  1  0
 33 28  1  0
  1 34  1  0
  1 35  1  0
  1 36  1  0
  4 37  1  0
  5 38  1  0
  6 39  1  0
  7 40  1  0
 10 41  1  0
 10 42  1  0
 11 43  1  0
 11 44  1  0
 13 45  1  0
 13 46  1  0
 14 47  1  0
 14 48  1  0
 15 49  1  0
 16 50  1  0
 16 51  1  0
 17 52  1  0
 22 53  1  0
 23 54  1  0
 26 55  1  0
 27 56  1  0
 29 57  1  0
 30 58  1  0
 31 59  1  0
 33 60  1  0
M  END
>  <Batch_No>  (117) 
F0688-0079

>  <EC50_nM>  (117) 
ND

>  <Set>  (117) 
Drug-like

>  <Molecular_Weight>  (117) 
487.01418

>  <ALogP>  (117) 
3.618

$$$$
MMV665798
     RDKit          3D

 40 43  0  0  0  0  0  0  0  0999 V2000
   -6.4997    1.9992   -0.1742 F   0  0  0  0  0  0  0  0  0  0  0  0
   -5.6570    1.5022    0.7728 C   0  0  0  0  0  0  0  0  0  0  0  0
   -5.4294    2.4508    1.7453 F   0  0  0  0  0  0  0  0  0  0  0  0
   -6.2097    0.3456    1.3002 F   0  0  0  0  0  0  0  0  0  0  0  0
   -4.3230    1.1820    0.1634 C   0  0  0  0  0  0  0  0  0  0  0  0
   -4.0229    1.5617   -1.1354 C   0  0  0  0  0  0  0  0  0  0  0  0
   -2.7748    1.2483   -1.6702 C   0  0  0  0  0  0  0  0  0  0  0  0
   -1.8412    0.5588   -0.9000 C   0  0  0  0  0  0  0  0  0  0  0  0
   -2.1727    0.1905    0.4032 C   0  0  0  0  0  0  0  0  0  0  0  0
   -1.1965   -0.5125    1.1612 N   0  0  0  0  0  0  0  0  0  0  0  0
    0.0571   -0.7987    0.5535 C   0  0  0  0  0  0  0  0  0  0  0  0
    1.1164    0.0452    0.6329 N   0  0  0  0  0  0  0  0  0  0  0  0
    2.2929   -0.2243    0.0618 C   0  0  0  0  0  0  0  0  0  0  0  0
    2.4681   -1.3679   -0.6261 N   0  0  0  0  0  0  0  0  0  0  0  0
    1.4291   -2.2241   -0.7195 C   0  0  0  0  0  0  0  0  0  0  0  0
    1.5916   -3.3722   -1.4054 N   0  0  0  0  0  0  0  0  0  0  0  0
    0.5645   -4.2372   -1.5079 C   0  0  0  0  0  0  0  0  0  0  0  0
   -0.6693   -4.0196   -0.9446 C   0  0  0  0  0  0  0  0  0  0  0  0
   -0.8633   -2.8644   -0.2434 C   0  0  0  0  0  0  0  0  0  0  0  0
    0.1993   -1.9834   -0.1449 C   0  0  0  0  0  0  0  0  0  0  0  0
    3.4046    0.7131    0.1737 C   0  0  0  0  0  0  0  0  0  0  0  0
    4.6214    0.4394   -0.4145 C   0  0  0  0  0  0  0  0  0  0  0  0
    5.6985    1.2985   -0.3328 C   0  0  0  0  0  0  0  0  0  0  0  0
    5.5558    2.4924    0.3715 C   0  0  0  0  0  0  0  0  0  0  0  0
    4.3332    2.7975    0.9790 C   0  0  0  0  0  0  0  0  0  0  0  0
    3.2704    1.8962    0.8690 C   0  0  0  0  0  0  0  0  0  0  0  0
   -3.4066    0.4964    0.9419 C   0  0  0  0  0  0  0  0  0  0  0  0
   -4.7712    2.0961   -1.7058 H   0  0  0  0  0  0  0  0  0  0  0  0
   -2.5258    1.5433   -2.6966 H   0  0  0  0  0  0  0  0  0  0  0  0
   -0.8741    0.3234   -1.3338 H   0  0  0  0  0  0  0  0  0  0  0  0
   -1.4285   -0.7983    2.1423 H   0  0  0  0  0  0  0  0  0  0  0  0
    0.6864   -5.1740   -2.0637 H   0  0  0  0  0  0  0  0  0  0  0  0
   -1.4687   -4.7397   -1.0499 H   0  0  0  0  0  0  0  0  0  0  0  0
   -1.8163   -2.6726    0.2047 H   0  0  0  0  0  0  0  0  0  0  0  0
    4.7168   -0.5060   -0.9659 H   0  0  0  0  0  0  0  0  0  0  0  0
    6.6371    1.0369   -0.8142 H   0  0  0  0  0  0  0  0  0  0  0  0
    6.3808    3.1924    0.4569 H   0  0  0  0  0  0  0  0  0  0  0  0
    4.2276    3.7257    1.5246 H   0  0  0  0  0  0  0  0  0  0  0  0
    2.3330    2.1686    1.3557 H   0  0  0  0  0  0  0  0  0  0  0  0
   -3.6337    0.1909    1.9715 H   0  0  0  0  0  0  0  0  0  0  0  0
  1  2  1  0
  2  3  1  0
  2  4  1  0
  2  5  1  0
  5  6  2  0
  6  7  1  0
  7  8  2  0
  8  9  1  0
  9 10  1  0
 10 11  1  0
 11 12  2  0
 12 13  1  0
 13 14  2  0
 14 15  1  0
 15 16  2  0
 16 17  1  0
 17 18  2  0
 18 19  1  0
 19 20  2  0
 13 21  1  0
 21 22  2  0
 22 23  1  0
 23 24  2  0
 24 25  1  0
 25 26  2  0
  9 27  2  0
 27  5  1  0
 20 11  1  0
 20 15  1  0
 26 21  1  0
  6 28  1  0
  7 29  1  0
  8 30  1  0
 10 31  1  0
 17 32  1  0
 18 33  1  0
 19 34  1  0
 22 35  1  0
 23 36  1  0
 24 37  1  0
 25 38  1  0
 26 39  1  0
 27 40  1  0
M  END
>  <Batch_No>  (118) 
AJ-333/13050020

>  <EC50_nM>  (118) 
ND

>  <Set>  (118) 
Drug-like

>  <Molecular_Weight>  (118) 
366.33922

>  <ALogP>  (118) 
4.447

$$$$
MMV665902
     RDKit          3D

 55 58  0  0  0  0  0  0  0  0999 V2000
    1.9058    1.8644    1.9263 O   0  0  0  0  0  0  0  0  0  0  0  0
    2.7511    0.7750    2.1278 C   0  0  0  0  0  0  0  0  0  0  0  0
    2.0354   -0.4334    2.6267 C   0  0  0  0  0  0  0  0  0  0  0  0
    0.9997   -0.9267    1.7395 N   0  0  0  0  0  0  0  0  0  0  0  0
   -0.3001   -0.6132    1.6794 C   0  0  0  0  0  0  0  0  0  0  0  0
   -0.8535    0.2405    2.4667 N   0  0  0  0  0  0  0  0  0  0  0  0
   -0.9292   -1.2825    0.7283 N   0  0  0  0  0  0  0  0  0  0  0  0
   -2.3112   -1.2809    0.2938 C   0  0  0  0  0  0  0  0  0  0  0  0
   -2.6481   -0.3163   -0.7633 C   0  0  0  0  0  0  0  0  0  0  0  0
   -2.4604    1.0640   -0.5192 N   0  0  0  0  0  0  0  0  0  0  0  0
   -3.3082    1.6880    0.4360 C   0  0  0  0  0  0  0  0  0  0  0  0
   -4.7842    1.6547    0.0550 C   0  0  0  0  0  0  0  0  0  0  0  0
   -4.9809    1.8521   -1.4085 C   0  0  0  0  0  0  0  0  0  0  0  0
   -3.7935    2.3313   -2.1712 C   0  0  0  0  0  0  0  0  0  0  0  0
   -2.4900    1.7661   -1.7619 C   0  0  0  0  0  0  0  0  0  0  0  0
    0.0046   -2.0657    0.1449 C   0  0  0  0  0  0  0  0  0  0  0  0
   -0.0127   -2.9831   -0.8889 C   0  0  0  0  0  0  0  0  0  0  0  0
    1.1114   -3.6718   -1.3035 C   0  0  0  0  0  0  0  0  0  0  0  0
    2.3023   -3.4310   -0.6553 C   0  0  0  0  0  0  0  0  0  0  0  0
    2.3684   -2.5247    0.3814 C   0  0  0  0  0  0  0  0  0  0  0  0
    1.2199   -1.8545    0.7676 C   0  0  0  0  0  0  0  0  0  0  0  0
    3.6047    0.6080    0.9569 C   0  0  0  0  0  0  0  0  0  0  0  0
    4.9735    0.3428    1.0888 C   0  0  0  0  0  0  0  0  0  0  0  0
    5.7740    0.1903   -0.0227 C   0  0  0  0  0  0  0  0  0  0  0  0
    5.2590    0.2926   -1.3206 C   0  0  0  0  0  0  0  0  0  0  0  0
    3.9051    0.5549   -1.4436 C   0  0  0  0  0  0  0  0  0  0  0  0
    3.1148    0.7117   -3.1792 Br  0  0  0  0  0  0  0  0  0  0  0  0
    3.0967    0.7089   -0.3241 C   0  0  0  0  0  0  0  0  0  0  0  0
    1.2171    1.6734    1.2492 H   0  0  0  0  0  0  0  0  0  0  0  0
    3.4327    1.1444    2.9517 H   0  0  0  0  0  0  0  0  0  0  0  0
    1.5332   -0.1400    3.5913 H   0  0  0  0  0  0  0  0  0  0  0  0
    2.6681   -1.2706    2.9029 H   0  0  0  0  0  0  0  0  0  0  0  0
   -0.2904    0.7342    3.2039 H   0  0  0  0  0  0  0  0  0  0  0  0
   -2.9925   -1.0734    1.1711 H   0  0  0  0  0  0  0  0  0  0  0  0
   -2.6394   -2.3030   -0.0304 H   0  0  0  0  0  0  0  0  0  0  0  0
   -2.0281   -0.5607   -1.6772 H   0  0  0  0  0  0  0  0  0  0  0  0
   -3.6935   -0.4879   -1.1167 H   0  0  0  0  0  0  0  0  0  0  0  0
   -3.2119    1.3399    1.4730 H   0  0  0  0  0  0  0  0  0  0  0  0
   -3.0239    2.7677    0.4624 H   0  0  0  0  0  0  0  0  0  0  0  0
   -5.2686    2.4557    0.6846 H   0  0  0  0  0  0  0  0  0  0  0  0
   -5.2416    0.6922    0.4305 H   0  0  0  0  0  0  0  0  0  0  0  0
   -5.7725    2.6540   -1.5073 H   0  0  0  0  0  0  0  0  0  0  0  0
   -5.4710    0.9509   -1.8830 H   0  0  0  0  0  0  0  0  0  0  0  0
   -3.7821    3.4537   -2.2038 H   0  0  0  0  0  0  0  0  0  0  0  0
   -3.9722    2.0291   -3.2461 H   0  0  0  0  0  0  0  0  0  0  0  0
   -1.7594    2.6182   -1.6615 H   0  0  0  0  0  0  0  0  0  0  0  0
   -2.0344    1.1154   -2.5494 H   0  0  0  0  0  0  0  0  0  0  0  0
   -0.9566   -3.1613   -1.3886 H   0  0  0  0  0  0  0  0  0  0  0  0
    1.0648   -4.3802   -2.1136 H   0  0  0  0  0  0  0  0  0  0  0  0
    3.2178   -3.9342   -0.9281 H   0  0  0  0  0  0  0  0  0  0  0  0
    3.3155   -2.3414    0.8880 H   0  0  0  0  0  0  0  0  0  0  0  0
    5.3463    0.2681    2.1073 H   0  0  0  0  0  0  0  0  0  0  0  0
    6.8231   -0.0129    0.1543 H   0  0  0  0  0  0  0  0  0  0  0  0
    5.9097    0.1685   -2.1716 H   0  0  0  0  0  0  0  0  0  0  0  0
    2.0554    0.9103   -0.4500 H   0  0  0  0  0  0  0  0  0  0  0  0
  1  2  1  0
  2  3  1  0
  3  4  1  0
  4  5  1  0
  5  6  2  3
  5  7  1  0
  7  8  1  0
  8  9  1  0
  9 10  1  0
 10 11  1  0
 11 12  1  0
 12 13  1  0
 13 14  1  0
 14 15  1  0
  7 16  1  0
 16 17  2  0
 17 18  1  0
 18 19  2  0
 19 20  1  0
 20 21  2  0
  2 22  1  0
 22 23  2  0
 23 24  1  0
 24 25  2  0
 25 26  1  0
 26 27  1  0
 26 28  2  0
 21  4  1  0
 15 10  1  0
 21 16  1  0
 28 22  1  0
  1 29  1  0
  2 30  1  0
  3 31  1  0
  3 32  1  0
  6 33  1  0
  8 34  1  0
  8 35  1  0
  9 36  1  0
  9 37  1  0
 11 38  1  0
 11 39  1  0
 12 40  1  0
 12 41  1  0
 13 42  1  0
 13 43  1  0
 14 44  1  0
 14 45  1  0
 15 46  1  0
 15 47  1  0
 17 48  1  0
 18 49  1  0
 19 50  1  0
 20 51  1  0
 23 52  1  0
 24 53  1  0
 25 54  1  0
 28 55  1  0
M  END
>  <Batch_No>  (119) 
OSSK_579474

>  <EC50_nM>  (119) 
893

>  <Set>  (119) 
Drug-like

>  <Molecular_Weight>  (119) 
443.37998

>  <ALogP>  (119) 
4.036

$$$$
MMV665888
     RDKit          3D

 53 56  0  0  0  0  0  0  0  0999 V2000
   -7.4103    2.4960   -0.2410 O   0  0  0  0  0  0  0  0  0  0  0  0
   -8.0607    1.2609   -0.3742 C   0  0  0  0  0  0  0  0  0  0  0  0
   -9.4055    1.2924   -0.6715 C   0  0  0  0  0  0  0  0  0  0  0  0
  -10.1414    0.1371   -0.8242 C   0  0  0  0  0  0  0  0  0  0  0  0
   -9.4734   -1.0570   -0.6666 C   0  0  0  0  0  0  0  0  0  0  0  0
   -8.1071   -1.0802   -0.3647 C   0  0  0  0  0  0  0  0  0  0  0  0
   -7.3644    0.0595   -0.2103 C   0  0  0  0  0  0  0  0  0  0  0  0
   -5.9889    0.1114    0.0931 N   0  0  0  0  0  0  0  0  0  0  0  0
   -5.1183   -0.9565    0.2944 C   0  0  0  0  0  0  0  0  0  0  0  0
   -5.5182   -2.1341    0.2160 O   0  0  0  0  0  0  0  0  0  0  0  0
   -3.6823   -0.7923    0.6102 C   0  0  0  0  0  0  0  0  0  0  0  0
   -2.9076   -1.9241    0.7907 C   0  0  0  0  0  0  0  0  0  0  0  0
   -1.5550   -1.8225    1.0886 C   0  0  0  0  0  0  0  0  0  0  0  0
   -0.9486   -0.5939    1.2122 C   0  0  0  0  0  0  0  0  0  0  0  0
    0.3830   -0.4055    1.5048 O   0  0  0  0  0  0  0  0  0  0  0  0
    1.3750   -0.3098    0.5405 C   0  0  0  0  0  0  0  0  0  0  0  0
    1.0103   -0.4082   -0.7765 C   0  0  0  0  0  0  0  0  0  0  0  0
    2.0080   -0.3115   -1.7332 C   0  0  0  0  0  0  0  0  0  0  0  0
    3.3102   -0.1220   -1.3091 C   0  0  0  0  0  0  0  0  0  0  0  0
    3.6675   -0.0243    0.0144 C   0  0  0  0  0  0  0  0  0  0  0  0
    2.6732   -0.1206    0.9704 C   0  0  0  0  0  0  0  0  0  0  0  0
    5.0321    0.1749    0.4753 C   0  0  0  0  0  0  0  0  0  0  0  0
    5.3227    0.2606    1.7152 O   0  0  0  0  0  0  0  0  0  0  0  0
    6.1319    0.2875   -0.4189 N   0  0  0  0  0  0  0  0  0  0  0  0
    7.4755    0.4834    0.0268 C   0  0  0  0  0  0  0  0  0  0  0  0
    7.9009    1.7884    0.1755 C   0  0  0  0  0  0  0  0  0  0  0  0
    9.1931    2.0580    0.6046 C   0  0  0  0  0  0  0  0  0  0  0  0
   10.0386    0.9930    0.8778 C   0  0  0  0  0  0  0  0  0  0  0  0
    9.6068   -0.3214    0.7269 C   0  0  0  0  0  0  0  0  0  0  0  0
    8.3292   -0.5635    0.3027 C   0  0  0  0  0  0  0  0  0  0  0  0
    7.8738   -1.8678    0.1441 O   0  0  0  0  0  0  0  0  0  0  0  0
   -1.7255    0.5473    1.0312 C   0  0  0  0  0  0  0  0  0  0  0  0
   -3.0750    0.4177    0.7342 C   0  0  0  0  0  0  0  0  0  0  0  0
   -7.1432    2.7946    0.6912 H   0  0  0  0  0  0  0  0  0  0  0  0
   -9.8991    2.2457   -0.7886 H   0  0  0  0  0  0  0  0  0  0  0  0
  -11.1927    0.2188   -1.0571 H   0  0  0  0  0  0  0  0  0  0  0  0
  -10.0415   -1.9643   -0.7844 H   0  0  0  0  0  0  0  0  0  0  0  0
   -7.6768   -2.0512   -0.2614 H   0  0  0  0  0  0  0  0  0  0  0  0
   -5.5657    1.0865    0.1784 H   0  0  0  0  0  0  0  0  0  0  0  0
   -3.3000   -2.9322    0.7124 H   0  0  0  0  0  0  0  0  0  0  0  0
   -0.9411   -2.7053    1.2315 H   0  0  0  0  0  0  0  0  0  0  0  0
   -0.0334   -0.5585   -1.0743 H   0  0  0  0  0  0  0  0  0  0  0  0
    1.7508   -0.3850   -2.7696 H   0  0  0  0  0  0  0  0  0  0  0  0
    4.0704   -0.0494   -2.0679 H   0  0  0  0  0  0  0  0  0  0  0  0
    2.8730   -0.0541    2.0235 H   0  0  0  0  0  0  0  0  0  0  0  0
    5.9926    0.2301   -1.4450 H   0  0  0  0  0  0  0  0  0  0  0  0
    7.2280    2.6019   -0.0421 H   0  0  0  0  0  0  0  0  0  0  0  0
    9.5212    3.1001    0.7196 H   0  0  0  0  0  0  0  0  0  0  0  0
   11.0536    1.2068    1.2149 H   0  0  0  0  0  0  0  0  0  0  0  0
   10.2992   -1.1168    0.9511 H   0  0  0  0  0  0  0  0  0  0  0  0
    7.0534   -2.1051   -0.3938 H   0  0  0  0  0  0  0  0  0  0  0  0
   -1.2796    1.5442    1.1213 H   0  0  0  0  0  0  0  0  0  0  0  0
   -3.6192    1.3400    0.6064 H   0  0  0  0  0  0  0  0  0  0  0  0
  1  2  1  0
  2  3  2  0
  3  4  1  0
  4  5  2  0
  5  6  1  0
  6  7  2  0
  7  8  1  0
  8  9  1  0
  9 10  2  0
  9 11  1  0
 11 12  2  0
 12 13  1  0
 13 14  2  0
 14 15  1  0
 15 16  1  0
 16 17  2  0
 17 18  1  0
 18 19  2  0
 19 20  1  0
 20 21  2  0
 20 22  1  0
 22 23  2  0
 22 24  1  0
 24 25  1  0
 25 26  2  0
 26 27  1  0
 27 28  2  0
 28 29  1  0
 29 30  2  0
 30 31  1  0
 14 32  1  0
 32 33  2  0
  7  2  1  0
 33 11  1  0
 21 16  1  0
 30 25  1  0
  1 34  1  0
  3 35  1  0
  4 36  1  0
  5 37  1  0
  6 38  1  0
  8 39  1  0
 12 40  1  0
 13 41  1  0
 17 42  1  0
 18 43  1  0
 19 44  1  0
 21 45  1  0
 24 46  1  0
 26 47  1  0
 27 48  1  0
 28 49  1  0
 29 50  1  0
 31 51  1  0
 32 52  1  0
 33 53  1  0
M  END
>  <Batch_No>  (120) 
OSSK_705361

>  <EC50_nM>  (120) 
ND

>  <Set>  (120) 
Drug-like

>  <Molecular_Weight>  (120) 
440.4474

>  <ALogP>  (120) 
4.475

$$$$
MMV666067
     RDKit          3D

 64 67  0  0  0  0  0  0  0  0999 V2000
   -9.6780   -0.8544   -0.4467 C   0  0  0  0  0  0  0  0  0  0  0  0
   -8.6208   -0.1141   -1.0316 O   0  0  0  0  0  0  0  0  0  0  0  0
   -7.4489    0.0459   -0.3090 C   0  0  0  0  0  0  0  0  0  0  0  0
   -7.3708   -0.5252    0.9444 C   0  0  0  0  0  0  0  0  0  0  0  0
   -6.1997   -0.3515    1.6387 C   0  0  0  0  0  0  0  0  0  0  0  0
   -5.1177    0.3605    1.1377 C   0  0  0  0  0  0  0  0  0  0  0  0
   -3.9223    0.4612    2.0039 C   0  0  0  0  0  0  0  0  0  0  0  0
   -3.0166   -0.6217    1.7518 N   0  0  0  0  0  0  0  0  0  0  0  0
   -1.8435   -0.6192    2.5550 C   0  0  0  0  0  0  0  0  0  0  0  0
   -0.9671    0.5778    2.4522 C   0  0  0  0  0  0  0  0  0  0  0  0
   -0.4574    0.7695    1.0422 C   0  0  0  0  0  0  0  0  0  0  0  0
    0.3221   -0.4260    0.6633 N   0  0  0  0  0  0  0  0  0  0  0  0
   -0.3968   -1.6780    0.8089 C   0  0  0  0  0  0  0  0  0  0  0  0
   -1.0014   -1.8414    2.1629 C   0  0  0  0  0  0  0  0  0  0  0  0
    1.6528   -0.3330    0.1872 C   0  0  0  0  0  0  0  0  0  0  0  0
    2.5148   -1.4264    0.1348 C   0  0  0  0  0  0  0  0  0  0  0  0
    3.8075   -1.3276   -0.3422 C   0  0  0  0  0  0  0  0  0  0  0  0
    4.3166   -0.1313   -0.7950 C   0  0  0  0  0  0  0  0  0  0  0  0
    5.6460   -0.1045   -1.2678 N   0  0  0  0  0  0  0  0  0  0  0  0
    6.7178    0.1617   -0.3825 C   0  0  0  0  0  0  0  0  0  0  0  0
    6.4032    0.3676    0.8331 O   0  0  0  0  0  0  0  0  0  0  0  0
    8.1082    0.2021   -0.8177 C   0  0  0  0  0  0  0  0  0  0  0  0
    8.4887   -0.0125   -2.1353 C   0  0  0  0  0  0  0  0  0  0  0  0
    9.8263    0.0420   -2.4667 C   0  0  0  0  0  0  0  0  0  0  0  0
   10.8264    0.3013   -1.5522 C   0  0  0  0  0  0  0  0  0  0  0  0
   10.4232    0.5122   -0.2438 C   0  0  0  0  0  0  0  0  0  0  0  0
   11.6843    0.8427    0.9255 Cl  0  0  0  0  0  0  0  0  0  0  0  0
    9.0857    0.4638    0.1193 C   0  0  0  0  0  0  0  0  0  0  0  0
    3.4835    0.9603   -0.7524 C   0  0  0  0  0  0  0  0  0  0  0  0
    2.1778    0.8607   -0.2710 C   0  0  0  0  0  0  0  0  0  0  0  0
   -5.2138    0.9237   -0.1160 C   0  0  0  0  0  0  0  0  0  0  0  0
   -6.3820    0.7641   -0.8367 C   0  0  0  0  0  0  0  0  0  0  0  0
   -6.5498    1.3028   -2.1040 O   0  0  0  0  0  0  0  0  0  0  0  0
   -5.5291    2.0405   -2.7140 C   0  0  0  0  0  0  0  0  0  0  0  0
   -9.4051   -1.8868   -0.1967 H   0  0  0  0  0  0  0  0  0  0  0  0
  -10.5765   -0.7924   -1.0963 H   0  0  0  0  0  0  0  0  0  0  0  0
   -9.9187   -0.3256    0.5203 H   0  0  0  0  0  0  0  0  0  0  0  0
   -8.1966   -1.0891    1.3708 H   0  0  0  0  0  0  0  0  0  0  0  0
   -6.1506   -0.8105    2.6329 H   0  0  0  0  0  0  0  0  0  0  0  0
   -3.3786    1.4153    1.7543 H   0  0  0  0  0  0  0  0  0  0  0  0
   -4.2521    0.5408    3.0391 H   0  0  0  0  0  0  0  0  0  0  0  0
   -2.9252   -0.8867    0.7710 H   0  0  0  0  0  0  0  0  0  0  0  0
   -2.1173   -0.7934    3.6251 H   0  0  0  0  0  0  0  0  0  0  0  0
   -1.3782    1.4978    2.8586 H   0  0  0  0  0  0  0  0  0  0  0  0
   -0.0551    0.3536    3.0743 H   0  0  0  0  0  0  0  0  0  0  0  0
    0.2112    1.6451    1.0852 H   0  0  0  0  0  0  0  0  0  0  0  0
   -1.2316    0.8869    0.2854 H   0  0  0  0  0  0  0  0  0  0  0  0
    0.2408   -2.5442    0.5932 H   0  0  0  0  0  0  0  0  0  0  0  0
   -1.2299   -1.7460    0.0468 H   0  0  0  0  0  0  0  0  0  0  0  0
   -1.6376   -2.7517    2.1235 H   0  0  0  0  0  0  0  0  0  0  0  0
   -0.2426   -1.9859    2.9319 H   0  0  0  0  0  0  0  0  0  0  0  0
    2.2056   -2.4000    0.4712 H   0  0  0  0  0  0  0  0  0  0  0  0
    4.4463   -2.2100   -0.3650 H   0  0  0  0  0  0  0  0  0  0  0  0
    5.8094   -0.2843   -2.2725 H   0  0  0  0  0  0  0  0  0  0  0  0
    7.7510   -0.2167   -2.8819 H   0  0  0  0  0  0  0  0  0  0  0  0
   10.1213   -0.1273   -3.5042 H   0  0  0  0  0  0  0  0  0  0  0  0
   11.8828    0.3390   -1.8445 H   0  0  0  0  0  0  0  0  0  0  0  0
    8.7866    0.6309    1.1470 H   0  0  0  0  0  0  0  0  0  0  0  0
    3.8728    1.9154   -1.1078 H   0  0  0  0  0  0  0  0  0  0  0  0
    1.6184    1.7892   -0.2930 H   0  0  0  0  0  0  0  0  0  0  0  0
   -4.3897    1.4710   -0.5087 H   0  0  0  0  0  0  0  0  0  0  0  0
   -4.9901    2.7096   -2.0109 H   0  0  0  0  0  0  0  0  0  0  0  0
   -5.9028    2.6866   -3.5423 H   0  0  0  0  0  0  0  0  0  0  0  0
   -4.7367    1.3755   -3.1652 H   0  0  0  0  0  0  0  0  0  0  0  0
  1  2  1  0
  2  3  1  0
  3  4  2  0
  4  5  1  0
  5  6  2  0
  6  7  1  0
  7  8  1  0
  8  9  1  0
  9 10  1  0
 10 11  1  0
 11 12  1  0
 12 13  1  0
 13 14  1  0
 12 15  1  0
 15 16  2  0
 16 17  1  0
 17 18  2  0
 18 19  1  0
 19 20  1  0
 20 21  2  0
 20 22  1  0
 22 23  2  0
 23 24  1  0
 24 25  2  0
 25 26  1  0
 26 27  1  0
 26 28  2  0
 18 29  1  0
 29 30  2  0
  6 31  1  0
 31 32  2  0
 32 33  1  0
 33 34  1  0
 32  3  1  0
 14  9  1  0
 30 15  1  0
 28 22  1  0
  1 35  1  0
  1 36  1  0
  1 37  1  0
  4 38  1  0
  5 39  1  0
  7 40  1  0
  7 41  1  0
  8 42  1  0
  9 43  1  0
 10 44  1  0
 10 45  1  0
 11 46  1  0
 11 47  1  0
 13 48  1  0
 13 49  1  0
 14 50  1  0
 14 51  1  0
 16 52  1  0
 17 53  1  0
 19 54  1  0
 23 55  1  0
 24 56  1  0
 25 57  1  0
 28 58  1  0
 29 59  1  0
 30 60  1  0
 31 61  1  0
 34 62  1  0
 34 63  1  0
 34 64  1  0
M  END
>  <Batch_No>  (121) 
75120263

>  <EC50_nM>  (121) 
663

>  <Set>  (121) 
Drug-like

>  <Molecular_Weight>  (121) 
479.9984

>  <ALogP>  (121) 
4.566

$$$$
MMV665939
     RDKit          3D

 43 45  0  0  0  0  0  0  0  0999 V2000
   -6.7696    3.6367    0.2003 F   0  0  0  0  0  0  0  0  0  0  0  0
   -5.8567    2.6927   -0.0807 C   0  0  0  0  0  0  0  0  0  0  0  0
   -5.3470    2.4834   -1.3449 C   0  0  0  0  0  0  0  0  0  0  0  0
   -4.4067    1.4906   -1.5630 C   0  0  0  0  0  0  0  0  0  0  0  0
   -3.9767    0.7062   -0.5114 C   0  0  0  0  0  0  0  0  0  0  0  0
   -4.4835    0.9116    0.7549 C   0  0  0  0  0  0  0  0  0  0  0  0
   -5.4263    1.9040    0.9842 C   0  0  0  0  0  0  0  0  0  0  0  0
   -2.9851   -0.3250   -0.7962 C   0  0  0  0  0  0  0  0  0  0  0  0
   -2.5776   -0.4413   -1.9805 O   0  0  0  0  0  0  0  0  0  0  0  0
   -2.4572   -1.1979    0.1763 N   0  0  0  0  0  0  0  0  0  0  0  0
   -1.4612   -2.2062   -0.2055 C   0  0  0  0  0  0  0  0  0  0  0  0
   -1.8351   -3.4334   -0.6008 C   0  0  0  0  0  0  0  0  0  0  0  0
   -0.8269   -4.3155   -0.9410 C   0  0  0  0  0  0  0  0  0  0  0  0
    0.6913   -3.3715   -0.6909 S   0  0  0  0  0  0  0  0  0  0  0  0
   -0.1469   -1.9043   -0.1620 C   0  0  0  0  0  0  0  0  0  0  0  0
    0.5201   -0.6567    0.2273 C   0  0  0  0  0  0  0  0  0  0  0  0
   -0.1948    0.2878    0.5755 O   0  0  0  0  0  0  0  0  0  0  0  0
    1.9164   -0.5702    0.1949 N   0  0  0  0  0  0  0  0  0  0  0  0
    2.5438    0.6942    0.5915 C   0  0  0  0  0  0  0  0  0  0  0  0
    3.1796    1.2430   -0.6372 C   0  0  0  0  0  0  0  0  0  0  0  0
    4.6187    0.8709   -0.8514 C   0  0  0  0  0  0  0  0  0  0  0  0
    5.4043    0.6402    0.3983 C   0  0  0  0  0  0  0  0  0  0  0  0
    4.6908    1.3739    1.5131 C   0  0  0  0  0  0  0  0  0  0  0  0
    3.4268    0.5417    1.7769 C   0  0  0  0  0  0  0  0  0  0  0  0
   -5.7173    3.1255   -2.1336 H   0  0  0  0  0  0  0  0  0  0  0  0
   -4.0325    1.3585   -2.5655 H   0  0  0  0  0  0  0  0  0  0  0  0
   -4.1576    0.3068    1.5884 H   0  0  0  0  0  0  0  0  0  0  0  0
   -5.8195    2.0567    1.9894 H   0  0  0  0  0  0  0  0  0  0  0  0
   -2.7739   -1.1275    1.1665 H   0  0  0  0  0  0  0  0  0  0  0  0
   -2.8884   -3.7746   -0.6691 H   0  0  0  0  0  0  0  0  0  0  0  0
   -0.8714   -5.3504   -1.2862 H   0  0  0  0  0  0  0  0  0  0  0  0
    2.5557   -1.3601   -0.0980 H   0  0  0  0  0  0  0  0  0  0  0  0
    1.7058    1.3862    0.8612 H   0  0  0  0  0  0  0  0  0  0  0  0
    2.5760    0.9467   -1.5279 H   0  0  0  0  0  0  0  0  0  0  0  0
    3.1751    2.3682   -0.5410 H   0  0  0  0  0  0  0  0  0  0  0  0
    4.6364   -0.0643   -1.4495 H   0  0  0  0  0  0  0  0  0  0  0  0
    5.1269    1.6258   -1.5211 H   0  0  0  0  0  0  0  0  0  0  0  0
    6.4309    1.0278    0.2322 H   0  0  0  0  0  0  0  0  0  0  0  0
    5.3685   -0.4398    0.6465 H   0  0  0  0  0  0  0  0  0  0  0  0
    4.3960    2.3932    1.2470 H   0  0  0  0  0  0  0  0  0  0  0  0
    5.2752    1.4242    2.4420 H   0  0  0  0  0  0  0  0  0  0  0  0
    2.9671    0.9736    2.6674 H   0  0  0  0  0  0  0  0  0  0  0  0
    3.8061   -0.4898    1.9238 H   0  0  0  0  0  0  0  0  0  0  0  0
  1  2  1  0
  2  3  2  0
  3  4  1  0
  4  5  2  0
  5  6  1  0
  6  7  2  0
  5  8  1  0
  8  9  2  0
  8 10  1  0
 10 11  1  0
 11 12  1  0
 12 13  2  0
 13 14  1  0
 14 15  1  0
 15 16  1  0
 16 17  2  0
 16 18  1  0
 18 19  1  0
 19 20  1  0
 20 21  1  0
 21 22  1  0
 22 23  1  0
 23 24  1  0
  7  2  1  0
 15 11  2  0
 24 19  1  0
  3 25  1  0
  4 26  1  0
  6 27  1  0
  7 28  1  0
 10 29  1  0
 12 30  1  0
 13 31  1  0
 18 32  1  0
 19 33  1  0
 20 34  1  0
 20 35  1  0
 21 36  1  0
 21 37  1  0
 22 38  1  0
 22 39  1  0
 23 40  1  0
 23 41  1  0
 24 42  1  0
 24 43  1  0
M  END
>  <Batch_No>  (122) 
9R-1320

>  <EC50_nM>  (122) 
ND

>  <Set>  (122) 
Drug-like

>  <Molecular_Weight>  (122) 
346.41906

>  <ALogP>  (122) 
3.839

$$$$
MMV009060
     RDKit          3D

 37 38  0  0  0  0  0  0  0  0999 V2000
   -4.4767    1.8796   -0.8908 C   0  0  0  0  0  0  0  0  0  0  0  0
   -3.7636    1.2253    0.2711 C   0  0  0  0  0  0  0  0  0  0  0  0
   -3.0112    0.0618   -0.2261 N   0  0  0  0  0  0  0  0  0  0  0  0
   -3.8608   -1.0360   -0.6766 C   0  0  0  0  0  0  0  0  0  0  0  0
   -4.5817   -1.6712    0.4769 C   0  0  0  0  0  0  0  0  0  0  0  0
   -1.5993    0.0211   -0.2696 C   0  0  0  0  0  0  0  0  0  0  0  0
   -0.9057   -1.1042   -0.7218 C   0  0  0  0  0  0  0  0  0  0  0  0
    0.4808   -1.1377   -0.7720 C   0  0  0  0  0  0  0  0  0  0  0  0
    1.2358   -0.0778   -0.3838 C   0  0  0  0  0  0  0  0  0  0  0  0
    2.6579   -0.0634   -0.4169 N   0  0  0  0  0  0  0  0  0  0  0  0
    3.4442   -0.4820    0.6682 C   0  0  0  0  0  0  0  0  0  0  0  0
    2.8871   -0.8930    1.7303 O   0  0  0  0  0  0  0  0  0  0  0  0
    4.8832   -0.4346    0.5490 C   0  0  0  0  0  0  0  0  0  0  0  0
    5.8320   -0.7736    1.4248 C   0  0  0  0  0  0  0  0  0  0  0  0
    7.1360   -0.6572    1.1259 C   0  0  0  0  0  0  0  0  0  0  0  0
    7.4322   -0.1641   -0.1465 C   0  0  0  0  0  0  0  0  0  0  0  0
    5.7853    0.1362   -0.9235 S   0  0  0  0  0  0  0  0  0  0  0  0
    0.5811    1.0481    0.0677 C   0  0  0  0  0  0  0  0  0  0  0  0
   -0.8188    1.0856    0.1197 C   0  0  0  0  0  0  0  0  0  0  0  0
   -4.6001    2.9539   -0.6656 H   0  0  0  0  0  0  0  0  0  0  0  0
   -3.7877    1.8106   -1.7756 H   0  0  0  0  0  0  0  0  0  0  0  0
   -5.4241    1.3568   -1.1360 H   0  0  0  0  0  0  0  0  0  0  0  0
   -4.5714    0.8836    0.9619 H   0  0  0  0  0  0  0  0  0  0  0  0
   -3.1325    1.9545    0.7747 H   0  0  0  0  0  0  0  0  0  0  0  0
   -3.3309   -1.7909   -1.2447 H   0  0  0  0  0  0  0  0  0  0  0  0
   -4.6627   -0.5499   -1.3019 H   0  0  0  0  0  0  0  0  0  0  0  0
   -5.7000   -1.6477    0.3658 H   0  0  0  0  0  0  0  0  0  0  0  0
   -4.3435   -1.1282    1.4248 H   0  0  0  0  0  0  0  0  0  0  0  0
   -4.3161   -2.7310    0.6398 H   0  0  0  0  0  0  0  0  0  0  0  0
   -1.4076   -1.9908   -1.0466 H   0  0  0  0  0  0  0  0  0  0  0  0
    0.9894   -2.0221   -1.1261 H   0  0  0  0  0  0  0  0  0  0  0  0
    3.0989    0.2851   -1.3177 H   0  0  0  0  0  0  0  0  0  0  0  0
    5.5330   -1.1695    2.4445 H   0  0  0  0  0  0  0  0  0  0  0  0
    7.9773   -0.9158    1.7932 H   0  0  0  0  0  0  0  0  0  0  0  0
    8.3920    0.0368   -0.6627 H   0  0  0  0  0  0  0  0  0  0  0  0
    1.1723    1.9050    0.3818 H   0  0  0  0  0  0  0  0  0  0  0  0
   -1.2241    2.0119    0.4845 H   0  0  0  0  0  0  0  0  0  0  0  0
  1  2  1  0
  2  3  1  0
  3  4  1  0
  4  5  1  0
  3  6  1  0
  6  7  2  0
  7  8  1  0
  8  9  2  0
  9 10  1  0
 10 11  1  0
 11 12  2  0
 11 13  1  0
 13 14  2  0
 14 15  1  0
 15 16  2  0
 16 17  1  0
  9 18  1  0
 18 19  2  0
 19  6  1  0
 17 13  1  0
  1 20  1  0
  1 21  1  0
  1 22  1  0
  2 23  1  0
  2 24  1  0
  4 25  1  0
  4 26  1  0
  5 27  1  0
  5 28  1  0
  5 29  1  0
  7 30  1  0
  8 31  1  0
 10 32  1  0
 14 33  1  0
 15 34  1  0
 16 35  1  0
 18 36  1  0
 19 37  1  0
M  END
>  <Batch_No>  (123) 
1988-2001

>  <EC50_nM>  (123) 
ND

>  <Set>  (123) 
Drug-like

>  <Molecular_Weight>  (123) 
274.38122

>  <ALogP>  (123) 
3.427

$$$$
MMV666110
     RDKit          3D

 71 73  0  0  0  0  0  0  0  0999 V2000
   -5.3921   -0.4066   -2.3184 C   0  0  0  0  0  0  0  0  0  0  0  0
   -4.9606   -0.0228   -0.9189 C   0  0  0  0  0  0  0  0  0  0  0  0
   -6.1643    0.2744   -0.0393 C   0  0  0  0  0  0  0  0  0  0  0  0
   -7.1000   -0.9309    0.0793 C   0  0  0  0  0  0  0  0  0  0  0  0
   -8.2280   -0.4988    0.9762 C   0  0  0  0  0  0  0  0  0  0  0  0
   -8.2975    0.7127    1.5066 C   0  0  0  0  0  0  0  0  0  0  0  0
   -9.2799   -1.5129    1.2434 C   0  0  0  0  0  0  0  0  0  0  0  0
   -4.1638    1.1643   -0.9934 N   0  0  0  0  0  0  0  0  0  0  0  0
   -3.6431    1.6336    0.2512 C   0  0  0  0  0  0  0  0  0  0  0  0
   -2.5626    0.6559    0.7244 C   0  0  0  0  0  0  0  0  0  0  0  0
   -1.4491    0.7698   -0.3173 C   0  0  0  0  0  0  0  0  0  0  0  0
   -1.9765    0.2340   -1.5997 C   0  0  0  0  0  0  0  0  0  0  0  0
   -3.1332    1.1245   -2.0048 C   0  0  0  0  0  0  0  0  0  0  0  0
   -0.2044    0.2926    0.1044 N   0  0  0  0  0  0  0  0  0  0  0  0
    0.3941    0.9024    1.2182 C   0  0  0  0  0  0  0  0  0  0  0  0
    1.8883    1.0383    1.1471 C   0  0  0  0  0  0  0  0  0  0  0  0
    2.4542    0.5380   -0.1626 C   0  0  0  0  0  0  0  0  0  0  0  0
    1.8938   -0.8031   -0.5538 C   0  0  0  0  0  0  0  0  0  0  0  0
    0.3837   -0.8322   -0.4755 C   0  0  0  0  0  0  0  0  0  0  0  0
    3.9174    0.5574   -0.0781 C   0  0  0  0  0  0  0  0  0  0  0  0
    4.6063    1.2643   -0.8928 O   0  0  0  0  0  0  0  0  0  0  0  0
    4.6721   -0.1762    0.8764 N   0  0  0  0  0  0  0  0  0  0  0  0
    6.0981   -0.1157    0.9075 C   0  0  0  0  0  0  0  0  0  0  0  0
    6.8014   -0.5646   -0.3275 C   0  0  0  0  0  0  0  0  0  0  0  0
    8.2729   -0.4020   -0.0402 C   0  0  0  0  0  0  0  0  0  0  0  0
    8.9193    0.7972   -0.3365 C   0  0  0  0  0  0  0  0  0  0  0  0
   10.2666    0.9832   -0.0872 C   0  0  0  0  0  0  0  0  0  0  0  0
   11.0062   -0.0260    0.4660 C   0  0  0  0  0  0  0  0  0  0  0  0
   10.3791   -1.2208    0.7652 C   0  0  0  0  0  0  0  0  0  0  0  0
    9.0175   -1.4205    0.5176 C   0  0  0  0  0  0  0  0  0  0  0  0
   -4.4723   -0.8397   -2.7981 H   0  0  0  0  0  0  0  0  0  0  0  0
   -6.0869   -1.2647   -2.2359 H   0  0  0  0  0  0  0  0  0  0  0  0
   -5.8008    0.4630   -2.8296 H   0  0  0  0  0  0  0  0  0  0  0  0
   -4.4024   -0.8571   -0.4742 H   0  0  0  0  0  0  0  0  0  0  0  0
   -5.8346    0.4836    0.9998 H   0  0  0  0  0  0  0  0  0  0  0  0
   -6.7770    1.0844   -0.4836 H   0  0  0  0  0  0  0  0  0  0  0  0
   -7.5884   -1.0547   -0.9199 H   0  0  0  0  0  0  0  0  0  0  0  0
   -6.5988   -1.8381    0.4149 H   0  0  0  0  0  0  0  0  0  0  0  0
   -7.5632    1.4909    1.3476 H   0  0  0  0  0  0  0  0  0  0  0  0
   -9.1318    0.9522    2.1382 H   0  0  0  0  0  0  0  0  0  0  0  0
   -9.6395   -1.9838    0.3044 H   0  0  0  0  0  0  0  0  0  0  0  0
   -8.8777   -2.2662    1.9481 H   0  0  0  0  0  0  0  0  0  0  0  0
  -10.1500   -1.0471    1.7586 H   0  0  0  0  0  0  0  0  0  0  0  0
   -3.0646    2.5761    0.0239 H   0  0  0  0  0  0  0  0  0  0  0  0
   -4.3934    1.8589    0.9927 H   0  0  0  0  0  0  0  0  0  0  0  0
   -2.1462    1.0312    1.6819 H   0  0  0  0  0  0  0  0  0  0  0  0
   -2.9308   -0.3647    0.8443 H   0  0  0  0  0  0  0  0  0  0  0  0
   -1.3477    1.8878   -0.4660 H   0  0  0  0  0  0  0  0  0  0  0  0
   -2.4005   -0.7969   -1.5349 H   0  0  0  0  0  0  0  0  0  0  0  0
   -1.2149    0.3507   -2.3981 H   0  0  0  0  0  0  0  0  0  0  0  0
   -2.7138    2.1722   -2.0371 H   0  0  0  0  0  0  0  0  0  0  0  0
   -3.5395    0.9378   -2.9888 H   0  0  0  0  0  0  0  0  0  0  0  0
    0.0998    0.3656    2.1461 H   0  0  0  0  0  0  0  0  0  0  0  0
   -0.0550    1.9217    1.3404 H   0  0  0  0  0  0  0  0  0  0  0  0
    2.3709    0.4829    1.9645 H   0  0  0  0  0  0  0  0  0  0  0  0
    2.1899    2.1021    1.2441 H   0  0  0  0  0  0  0  0  0  0  0  0
    2.1273    1.2622   -0.9372 H   0  0  0  0  0  0  0  0  0  0  0  0
    2.2626   -1.6244    0.0945 H   0  0  0  0  0  0  0  0  0  0  0  0
    2.2638   -1.0340   -1.5743 H   0  0  0  0  0  0  0  0  0  0  0  0
    0.0145   -0.9968   -1.5005 H   0  0  0  0  0  0  0  0  0  0  0  0
    0.0192   -1.7382    0.0898 H   0  0  0  0  0  0  0  0  0  0  0  0
    4.1052   -0.7617    1.5519 H   0  0  0  0  0  0  0  0  0  0  0  0
    6.4425   -0.7740    1.7454 H   0  0  0  0  0  0  0  0  0  0  0  0
    6.4982    0.8858    1.1633 H   0  0  0  0  0  0  0  0  0  0  0  0
    6.5801   -1.6072   -0.6346 H   0  0  0  0  0  0  0  0  0  0  0  0
    6.6152    0.1167   -1.1826 H   0  0  0  0  0  0  0  0  0  0  0  0
    8.3820    1.6221   -0.7724 H   0  0  0  0  0  0  0  0  0  0  0  0
   10.7816    1.9201   -0.3167 H   0  0  0  0  0  0  0  0  0  0  0  0
   12.0478    0.0708    0.6765 H   0  0  0  0  0  0  0  0  0  0  0  0
   10.9652   -2.0353    1.2092 H   0  0  0  0  0  0  0  0  0  0  0  0
    8.5481   -2.3818    0.7666 H   0  0  0  0  0  0  0  0  0  0  0  0
  1  2  1  0
  2  3  1  0
  3  4  1  0
  4  5  1  0
  5  6  2  0
  5  7  1  0
  2  8  1  0
  8  9  1  0
  9 10  1  0
 10 11  1  0
 11 12  1  0
 12 13  1  0
 11 14  1  0
 14 15  1  0
 15 16  1  0
 16 17  1  0
 17 18  1  0
 18 19  1  0
 17 20  1  0
 20 21  2  0
 20 22  1  0
 22 23  1  0
 23 24  1  0
 24 25  1  0
 25 26  2  0
 26 27  1  0
 27 28  2  0
 28 29  1  0
 29 30  2  0
 13  8  1  0
 19 14  1  0
 30 25  1  0
  1 31  1  0
  1 32  1  0
  1 33  1  0
  2 34  1  0
  3 35  1  0
  3 36  1  0
  4 37  1  0
  4 38  1  0
  6 39  1  0
  6 40  1  0
  7 41  1  0
  7 42  1  0
  7 43  1  0
  9 44  1  0
  9 45  1  0
 10 46  1  0
 10 47  1  0
 11 48  1  0
 12 49  1  0
 12 50  1  0
 13 51  1  0
 13 52  1  0
 15 53  1  0
 15 54  1  0
 16 55  1  0
 16 56  1  0
 17 57  1  0
 18 58  1  0
 18 59  1  0
 19 60  1  0
 19 61  1  0
 22 62  1  0
 23 63  1  0
 23 64  1  0
 24 65  1  0
 24 66  1  0
 26 67  1  0
 27 68  1  0
 28 69  1  0
 29 70  1  0
 30 71  1  0
M  END
>  <Batch_No>  (124) 
44018051-1

>  <EC50_nM>  (124) 
1750

>  <Set>  (124) 
Drug-like

>  <Molecular_Weight>  (124) 
411.62324

>  <ALogP>  (124) 
4.233

$$$$
MMV019758
     RDKit          3D

 57 60  0  0  0  0  0  0  0  0999 V2000
    9.1017   -1.6077    1.7532 C   0  0  0  0  0  0  0  0  0  0  0  0
    8.4703   -0.6520    0.8877 O   0  0  0  0  0  0  0  0  0  0  0  0
    7.0968   -0.6730    0.6934 C   0  0  0  0  0  0  0  0  0  0  0  0
    6.3066   -1.6147    1.3298 C   0  0  0  0  0  0  0  0  0  0  0  0
    4.9285   -1.6026    1.1081 C   0  0  0  0  0  0  0  0  0  0  0  0
    4.3481   -0.6710    0.2690 C   0  0  0  0  0  0  0  0  0  0  0  0
    5.1613    0.2357   -0.3355 C   0  0  0  0  0  0  0  0  0  0  0  0
    6.5428    0.2599   -0.1426 C   0  0  0  0  0  0  0  0  0  0  0  0
    7.3490    1.1922   -0.7690 O   0  0  0  0  0  0  0  0  0  0  0  0
    6.7709    2.1672   -1.6424 C   0  0  0  0  0  0  0  0  0  0  0  0
    2.8993   -0.7263    0.0910 C   0  0  0  0  0  0  0  0  0  0  0  0
    2.2637   -1.6151    0.7102 O   0  0  0  0  0  0  0  0  0  0  0  0
    2.1873    0.1684   -0.7401 N   0  0  0  0  0  0  0  0  0  0  0  0
    0.7798    0.0631   -0.8711 C   0  0  0  0  0  0  0  0  0  0  0  0
    0.1671   -0.7192   -1.8419 C   0  0  0  0  0  0  0  0  0  0  0  0
   -1.2023   -0.8121   -1.9582 C   0  0  0  0  0  0  0  0  0  0  0  0
   -2.0103   -0.1143   -1.0934 C   0  0  0  0  0  0  0  0  0  0  0  0
   -3.3312   -0.2207   -1.2268 N   0  0  0  0  0  0  0  0  0  0  0  0
   -4.1518    0.4423   -0.4056 C   0  0  0  0  0  0  0  0  0  0  0  0
   -3.5823    1.2286    0.5699 C   0  0  0  0  0  0  0  0  0  0  0  0
   -2.2074    1.3551    0.7283 C   0  0  0  0  0  0  0  0  0  0  0  0
   -1.5959    2.1960    1.7722 C   0  0  0  0  0  0  0  0  0  0  0  0
   -1.3907    0.6581   -0.1350 C   0  0  0  0  0  0  0  0  0  0  0  0
   -0.0181    0.7553   -0.0133 C   0  0  0  0  0  0  0  0  0  0  0  0
   -5.5750    0.3182   -0.5638 N   0  0  0  0  0  0  0  0  0  0  0  0
   -6.5110    0.9930    0.3174 C   0  0  0  0  0  0  0  0  0  0  0  0
   -7.7771    0.1686    0.4731 C   0  0  0  0  0  0  0  0  0  0  0  0
   -7.4595   -1.3034    0.2508 C   0  0  0  0  0  0  0  0  0  0  0  0
   -7.1432   -1.4780   -1.2162 C   0  0  0  0  0  0  0  0  0  0  0  0
   -6.1045   -0.4906   -1.6215 C   0  0  0  0  0  0  0  0  0  0  0  0
    9.0138   -2.5864    1.2391 H   0  0  0  0  0  0  0  0  0  0  0  0
    8.4842   -1.6196    2.6791 H   0  0  0  0  0  0  0  0  0  0  0  0
   10.1460   -1.3431    1.9402 H   0  0  0  0  0  0  0  0  0  0  0  0
    6.7117   -2.3608    1.9926 H   0  0  0  0  0  0  0  0  0  0  0  0
    4.3385   -2.3583    1.6257 H   0  0  0  0  0  0  0  0  0  0  0  0
    4.7180    0.9702   -0.9948 H   0  0  0  0  0  0  0  0  0  0  0  0
    7.5135    2.9266   -1.9363 H   0  0  0  0  0  0  0  0  0  0  0  0
    6.3357    1.6282   -2.4919 H   0  0  0  0  0  0  0  0  0  0  0  0
    5.9428    2.6377   -1.0385 H   0  0  0  0  0  0  0  0  0  0  0  0
    2.6969    0.9141   -1.2635 H   0  0  0  0  0  0  0  0  0  0  0  0
    0.7863   -1.2859   -2.5442 H   0  0  0  0  0  0  0  0  0  0  0  0
   -1.6086   -1.4419   -2.7395 H   0  0  0  0  0  0  0  0  0  0  0  0
   -4.1889    1.7859    1.2589 H   0  0  0  0  0  0  0  0  0  0  0  0
   -0.8082    2.8655    1.3880 H   0  0  0  0  0  0  0  0  0  0  0  0
   -2.3968    2.8700    2.1654 H   0  0  0  0  0  0  0  0  0  0  0  0
   -1.2626    1.5838    2.6437 H   0  0  0  0  0  0  0  0  0  0  0  0
    0.4297    1.3620    0.7393 H   0  0  0  0  0  0  0  0  0  0  0  0
   -6.0940    1.1000    1.3386 H   0  0  0  0  0  0  0  0  0  0  0  0
   -6.7352    2.0061   -0.0552 H   0  0  0  0  0  0  0  0  0  0  0  0
   -8.5707    0.4454   -0.2458 H   0  0  0  0  0  0  0  0  0  0  0  0
   -8.2059    0.2374    1.4875 H   0  0  0  0  0  0  0  0  0  0  0  0
   -8.3669   -1.8745    0.4681 H   0  0  0  0  0  0  0  0  0  0  0  0
   -6.5785   -1.6424    0.8121 H   0  0  0  0  0  0  0  0  0  0  0  0
   -8.0963   -1.2763   -1.7561 H   0  0  0  0  0  0  0  0  0  0  0  0
   -6.8157   -2.5268   -1.3965 H   0  0  0  0  0  0  0  0  0  0  0  0
   -5.2555   -1.0749   -2.0868 H   0  0  0  0  0  0  0  0  0  0  0  0
   -6.4460    0.1570   -2.4819 H   0  0  0  0  0  0  0  0  0  0  0  0
  1  2  1  0
  2  3  1  0
  3  4  2  0
  4  5  1  0
  5  6  2  0
  6  7  1  0
  7  8  2  0
  8  9  1  0
  9 10  1  0
  6 11  1  0
 11 12  2  0
 11 13  1  0
 13 14  1  0
 14 15  2  0
 15 16  1  0
 16 17  2  0
 17 18  1  0
 18 19  2  0
 19 20  1  0
 20 21  2  0
 21 22  1  0
 21 23  1  0
 23 24  2  0
 19 25  1  0
 25 26  1  0
 26 27  1  0
 27 28  1  0
 28 29  1  0
 29 30  1  0
  8  3  1  0
 24 14  1  0
 23 17  1  0
 30 25  1  0
  1 31  1  0
  1 32  1  0
  1 33  1  0
  4 34  1  0
  5 35  1  0
  7 36  1  0
 10 37  1  0
 10 38  1  0
 10 39  1  0
 13 40  1  0
 15 41  1  0
 16 42  1  0
 20 43  1  0
 22 44  1  0
 22 45  1  0
 22 46  1  0
 24 47  1  0
 26 48  1  0
 26 49  1  0
 27 50  1  0
 27 51  1  0
 28 52  1  0
 28 53  1  0
 29 54  1  0
 29 55  1  0
 30 56  1  0
 30 57  1  0
M  END
>  <Batch_No>  (125) 
C066-0283

>  <EC50_nM>  (125) 
ND

>  <Set>  (125) 
Drug-like

>  <Molecular_Weight>  (125) 
405.48947

>  <ALogP>  (125) 
4.252

$$$$
MMV000498
     RDKit          3D

 52 54  0  0  0  0  0  0  0  0999 V2000
   -6.1756   -1.6058    1.2850 C   0  0  0  0  0  0  0  0  0  0  0  0
   -5.6054   -1.4340   -0.0914 C   0  0  0  0  0  0  0  0  0  0  0  0
   -5.1480   -0.0080   -0.1668 N   0  0  0  0  0  0  0  0  0  0  0  0
   -6.2299    0.9238   -0.1527 C   0  0  0  0  0  0  0  0  0  0  0  0
   -5.9397    2.3765   -0.0937 C   0  0  0  0  0  0  0  0  0  0  0  0
   -3.7672    0.1863   -0.2190 C   0  0  0  0  0  0  0  0  0  0  0  0
   -3.1002    1.3391   -0.5520 C   0  0  0  0  0  0  0  0  0  0  0  0
   -1.7002    1.4271   -0.5343 C   0  0  0  0  0  0  0  0  0  0  0  0
   -1.0258    2.7033   -0.9046 C   0  0  0  0  0  0  0  0  0  0  0  0
   -0.9365    0.3433   -0.1773 C   0  0  0  0  0  0  0  0  0  0  0  0
    0.4372    0.4253   -0.1570 C   0  0  0  0  0  0  0  0  0  0  0  0
    1.1493   -0.6955    0.2116 C   0  0  0  0  0  0  0  0  0  0  0  0
    2.5699   -0.5856    0.2253 N   0  0  0  0  0  0  0  0  0  0  0  0
    3.3148   -0.8946   -0.9377 C   0  0  0  0  0  0  0  0  0  0  0  0
    2.7140   -1.2654   -1.9779 O   0  0  0  0  0  0  0  0  0  0  0  0
    4.7676   -0.8069   -1.0038 C   0  0  0  0  0  0  0  0  0  0  0  0
    5.4083   -1.1404   -2.1711 C   0  0  0  0  0  0  0  0  0  0  0  0
    6.7716   -1.0879   -2.3289 C   0  0  0  0  0  0  0  0  0  0  0  0
    7.5381   -0.6712   -1.2341 C   0  0  0  0  0  0  0  0  0  0  0  0
    6.9311   -0.3297   -0.0502 C   0  0  0  0  0  0  0  0  0  0  0  0
    7.7301    0.0804    1.0166 O   0  0  0  0  0  0  0  0  0  0  0  0
    7.1622    0.4484    2.2690 C   0  0  0  0  0  0  0  0  0  0  0  0
    5.5581   -0.4007    0.0528 C   0  0  0  0  0  0  0  0  0  0  0  0
    0.4925   -1.8536    0.5462 C   0  0  0  0  0  0  0  0  0  0  0  0
   -0.8839   -1.9248    0.5223 C   0  0  0  0  0  0  0  0  0  0  0  0
   -1.6288   -0.8116    0.1548 C   0  0  0  0  0  0  0  0  0  0  0  0
   -2.9695   -0.8585    0.1263 N   0  0  0  0  0  0  0  0  0  0  0  0
   -7.2209   -1.2803    1.3069 H   0  0  0  0  0  0  0  0  0  0  0  0
   -6.0396   -2.6401    1.6685 H   0  0  0  0  0  0  0  0  0  0  0  0
   -5.6442   -0.9463    2.0242 H   0  0  0  0  0  0  0  0  0  0  0  0
   -4.7393   -2.1015   -0.2348 H   0  0  0  0  0  0  0  0  0  0  0  0
   -6.3182   -1.6344   -0.8970 H   0  0  0  0  0  0  0  0  0  0  0  0
   -6.9920    0.6355    0.6562 H   0  0  0  0  0  0  0  0  0  0  0  0
   -6.8747    0.7867   -1.0905 H   0  0  0  0  0  0  0  0  0  0  0  0
   -5.8088    2.8208   -1.0873 H   0  0  0  0  0  0  0  0  0  0  0  0
   -6.9106    2.8951    0.2705 H   0  0  0  0  0  0  0  0  0  0  0  0
   -5.2194    2.6865    0.6891 H   0  0  0  0  0  0  0  0  0  0  0  0
   -3.6111    2.2086   -0.8547 H   0  0  0  0  0  0  0  0  0  0  0  0
   -0.2832    3.0216   -0.1651 H   0  0  0  0  0  0  0  0  0  0  0  0
   -0.4705    2.5711   -1.8792 H   0  0  0  0  0  0  0  0  0  0  0  0
   -1.7859    3.4829   -1.1062 H   0  0  0  0  0  0  0  0  0  0  0  0
    0.9649    1.3513   -0.4252 H   0  0  0  0  0  0  0  0  0  0  0  0
    3.0568   -0.2780    1.0911 H   0  0  0  0  0  0  0  0  0  0  0  0
    4.8376   -1.4700   -3.0420 H   0  0  0  0  0  0  0  0  0  0  0  0
    7.2845   -1.3469   -3.2422 H   0  0  0  0  0  0  0  0  0  0  0  0
    8.6075   -0.6186   -1.3193 H   0  0  0  0  0  0  0  0  0  0  0  0
    6.3010    1.1376    2.0965 H   0  0  0  0  0  0  0  0  0  0  0  0
    6.8372   -0.4577    2.8352 H   0  0  0  0  0  0  0  0  0  0  0  0
    7.9067    0.9830    2.8760 H   0  0  0  0  0  0  0  0  0  0  0  0
    5.0872   -0.1303    0.9888 H   0  0  0  0  0  0  0  0  0  0  0  0
    1.0325   -2.7260    0.8334 H   0  0  0  0  0  0  0  0  0  0  0  0
   -1.4318   -2.8297    0.7838 H   0  0  0  0  0  0  0  0  0  0  0  0
  1  2  1  0
  2  3  1  0
  3  4  1  0
  4  5  1  0
  3  6  1  0
  6  7  2  0
  7  8  1  0
  8  9  1  0
  8 10  2  0
 10 11  1  0
 11 12  2  0
 12 13  1  0
 13 14  1  0
 14 15  2  0
 14 16  1  0
 16 17  2  0
 17 18  1  0
 18 19  2  0
 19 20  1  0
 20 21  1  0
 21 22  1  0
 20 23  2  0
 12 24  1  0
 24 25  2  0
 25 26  1  0
 26 27  2  0
 27  6  1  0
 26 10  1  0
 23 16  1  0
  1 28  1  0
  1 29  1  0
  1 30  1  0
  2 31  1  0
  2 32  1  0
  4 33  1  0
  4 34  1  0
  5 35  1  0
  5 36  1  0
  5 37  1  0
  7 38  1  0
  9 39  1  0
  9 40  1  0
  9 41  1  0
 11 42  1  0
 13 43  1  0
 17 44  1  0
 18 45  1  0
 19 46  1  0
 22 47  1  0
 22 48  1  0
 22 49  1  0
 23 50  1  0
 24 51  1  0
 25 52  1  0
M  END
>  <Batch_No>  (126) 
C126-0030

>  <EC50_nM>  (126) 
ND

>  <Set>  (126) 
Drug-like

>  <Molecular_Weight>  (126) 
363.4528

>  <ALogP>  (126) 
4.669

$$$$
MMV665913
     RDKit          3D

 48 50  0  0  0  0  0  0  0  0999 V2000
    6.3533    2.8417   -0.5800 C   0  0  0  0  0  0  0  0  0  0  0  0
    7.0575    1.9535    0.3890 C   0  0  0  0  0  0  0  0  0  0  0  0
    6.8056    0.5747    0.1752 O   0  0  0  0  0  0  0  0  0  0  0  0
    5.5420    0.0070    0.2306 C   0  0  0  0  0  0  0  0  0  0  0  0
    5.4794   -1.3682   -0.0069 C   0  0  0  0  0  0  0  0  0  0  0  0
    4.2267   -1.9815    0.0391 C   0  0  0  0  0  0  0  0  0  0  0  0
    3.1049   -1.2322    0.3117 C   0  0  0  0  0  0  0  0  0  0  0  0
    3.1507    0.1286    0.5487 C   0  0  0  0  0  0  0  0  0  0  0  0
    4.3950    0.7238    0.5005 C   0  0  0  0  0  0  0  0  0  0  0  0
    1.7543   -1.8548    0.3688 C   0  0  0  0  0  0  0  0  0  0  0  0
    0.7075   -1.3596   -0.1827 N   0  0  0  0  0  0  0  0  0  0  0  0
   -0.4624   -1.8257   -0.1767 C   0  0  0  0  0  0  0  0  0  0  0  0
   -1.7491   -1.5007   -0.6815 N   0  0  0  0  0  0  0  0  0  0  0  0
   -2.6375   -0.7169    0.0817 C   0  0  0  0  0  0  0  0  0  0  0  0
   -2.2128   -0.3331    1.2242 O   0  0  0  0  0  0  0  0  0  0  0  0
   -3.9715   -0.3487   -0.3794 C   0  0  0  0  0  0  0  0  0  0  0  0
   -4.4824   -0.7336   -1.6015 C   0  0  0  0  0  0  0  0  0  0  0  0
   -5.7551   -0.3604   -1.9979 C   0  0  0  0  0  0  0  0  0  0  0  0
   -6.5457    0.4096   -1.1744 C   0  0  0  0  0  0  0  0  0  0  0  0
   -6.0428    0.7993    0.0498 C   0  0  0  0  0  0  0  0  0  0  0  0
   -4.7691    0.4203    0.4357 C   0  0  0  0  0  0  0  0  0  0  0  0
   -7.0328    1.7865    1.1267 S   0  0  0  0  0  0  0  0  0  0  0  0
   -8.4804    1.5227    0.8212 O   0  0  0  0  0  0  0  0  0  0  0  0
   -6.7026    1.5058    2.5628 O   0  0  0  0  0  0  0  0  0  0  0  0
   -6.6569    3.4834    0.6985 C   0  0  0  0  0  0  0  0  0  0  0  0
   -0.2196   -3.3949    0.8389 S   0  0  0  0  0  0  0  0  0  0  0  0
    1.6052   -3.0606    1.0693 C   0  0  0  0  0  0  0  0  0  0  0  0
    2.4880   -3.8974    1.7914 C   0  0  0  0  0  0  0  0  0  0  0  0
    7.1010    3.3944   -1.1806 H   0  0  0  0  0  0  0  0  0  0  0  0
    5.7347    2.2581   -1.2919 H   0  0  0  0  0  0  0  0  0  0  0  0
    5.7631    3.6557   -0.0664 H   0  0  0  0  0  0  0  0  0  0  0  0
    6.7038    2.2044    1.4130 H   0  0  0  0  0  0  0  0  0  0  0  0
    8.1509    2.0973    0.2826 H   0  0  0  0  0  0  0  0  0  0  0  0
    6.3470   -1.9589   -0.2197 H   0  0  0  0  0  0  0  0  0  0  0  0
    4.1587   -3.0451   -0.1425 H   0  0  0  0  0  0  0  0  0  0  0  0
    2.2649    0.7120    0.7625 H   0  0  0  0  0  0  0  0  0  0  0  0
    4.4589    1.7879    0.6829 H   0  0  0  0  0  0  0  0  0  0  0  0
   -2.0237   -1.8514   -1.6238 H   0  0  0  0  0  0  0  0  0  0  0  0
   -3.8902   -1.3331   -2.2633 H   0  0  0  0  0  0  0  0  0  0  0  0
   -6.1247   -0.6814   -2.9664 H   0  0  0  0  0  0  0  0  0  0  0  0
   -7.5529    0.7161   -1.4660 H   0  0  0  0  0  0  0  0  0  0  0  0
   -4.3620    0.7263    1.4079 H   0  0  0  0  0  0  0  0  0  0  0  0
   -7.4816    3.8905    0.0713 H   0  0  0  0  0  0  0  0  0  0  0  0
   -6.5437    4.1268    1.5836 H   0  0  0  0  0  0  0  0  0  0  0  0
   -5.7416    3.5810    0.0978 H   0  0  0  0  0  0  0  0  0  0  0  0
    2.9563   -4.6678    1.1473 H   0  0  0  0  0  0  0  0  0  0  0  0
    3.2212   -3.3213    2.3503 H   0  0  0  0  0  0  0  0  0  0  0  0
    1.9105   -4.4799    2.5675 H   0  0  0  0  0  0  0  0  0  0  0  0
  1  2  1  0
  2  3  1  0
  3  4  1  0
  4  5  2  0
  5  6  1  0
  6  7  2  0
  7  8  1  0
  8  9  2  0
  7 10  1  0
 10 11  1  0
 11 12  2  0
 12 13  1  0
 13 14  1  0
 14 15  2  0
 14 16  1  0
 16 17  2  0
 17 18  1  0
 18 19  2  0
 19 20  1  0
 20 21  2  0
 20 22  1  0
 22 23  2  0
 22 24  2  0
 22 25  1  0
 12 26  1  0
 26 27  1  0
 27 28  1  0
  9  4  1  0
 27 10  2  0
 21 16  1  0
  1 29  1  0
  1 30  1  0
  1 31  1  0
  2 32  1  0
  2 33  1  0
  5 34  1  0
  6 35  1  0
  8 36  1  0
  9 37  1  0
 13 38  1  0
 17 39  1  0
 18 40  1  0
 19 41  1  0
 21 42  1  0
 25 43  1  0
 25 44  1  0
 25 45  1  0
 28 46  1  0
 28 47  1  0
 28 48  1  0
M  END
>  <Batch_No>  (127) 
F2557-0175

>  <EC50_nM>  (127) 
ND

>  <Set>  (127) 
Drug-like

>  <Molecular_Weight>  (127) 
416.51379

>  <ALogP>  (127) 
3.562

$$$$
MMV665789
     RDKit          3D

 34 35  0  0  0  0  0  0  0  0999 V2000
   -0.3939    1.3638   -1.6999 C   0  0  0  0  0  0  0  0  0  0  0  0
   -0.4875    0.2704   -0.6992 C   0  0  0  0  0  0  0  0  0  0  0  0
   -0.0574   -1.0257   -1.1131 N   0  0  0  0  0  0  0  0  0  0  0  0
    1.2863   -1.1394   -1.5211 C   0  0  0  0  0  0  0  0  0  0  0  0
    2.2694   -0.7763   -0.4660 C   0  0  0  0  0  0  0  0  0  0  0  0
    2.7467   -1.7446    0.4028 C   0  0  0  0  0  0  0  0  0  0  0  0
    3.6603   -1.4269    1.3894 C   0  0  0  0  0  0  0  0  0  0  0  0
    4.1239   -0.1365    1.5382 C   0  0  0  0  0  0  0  0  0  0  0  0
    3.6595    0.8544    0.6777 C   0  0  0  0  0  0  0  0  0  0  0  0
    2.7472    0.5084   -0.2985 C   0  0  0  0  0  0  0  0  0  0  0  0
   -1.8508    0.2512   -0.1222 C   0  0  0  0  0  0  0  0  0  0  0  0
   -2.8763   -0.4974   -0.6741 C   0  0  0  0  0  0  0  0  0  0  0  0
   -4.1542   -0.5180   -0.1368 C   0  0  0  0  0  0  0  0  0  0  0  0
   -5.4325   -1.4648   -0.8430 Cl  0  0  0  0  0  0  0  0  0  0  0  0
   -4.4500    0.2237    0.9900 C   0  0  0  0  0  0  0  0  0  0  0  0
   -3.4416    0.9816    1.5618 C   0  0  0  0  0  0  0  0  0  0  0  0
   -2.1800    0.9867    1.0109 C   0  0  0  0  0  0  0  0  0  0  0  0
   -1.2139    1.7753    1.6427 O   0  0  0  0  0  0  0  0  0  0  0  0
   -1.4227    1.4670   -2.1561 H   0  0  0  0  0  0  0  0  0  0  0  0
    0.2496    1.1029   -2.5609 H   0  0  0  0  0  0  0  0  0  0  0  0
   -0.1348    2.3135   -1.1971 H   0  0  0  0  0  0  0  0  0  0  0  0
    0.1853    0.5462    0.1658 H   0  0  0  0  0  0  0  0  0  0  0  0
   -0.7395   -1.6306   -1.5675 H   0  0  0  0  0  0  0  0  0  0  0  0
    1.5472   -0.5925   -2.4496 H   0  0  0  0  0  0  0  0  0  0  0  0
    1.4825   -2.2045   -1.7657 H   0  0  0  0  0  0  0  0  0  0  0  0
    2.4121   -2.7650    0.3231 H   0  0  0  0  0  0  0  0  0  0  0  0
    4.0100   -2.1881    2.0420 H   0  0  0  0  0  0  0  0  0  0  0  0
    4.8411    0.0695    2.3263 H   0  0  0  0  0  0  0  0  0  0  0  0
    4.0428    1.8430    0.8252 H   0  0  0  0  0  0  0  0  0  0  0  0
    2.4067    1.3015   -0.9501 H   0  0  0  0  0  0  0  0  0  0  0  0
   -2.7065   -1.0901   -1.5451 H   0  0  0  0  0  0  0  0  0  0  0  0
   -5.4505    0.2007    1.4014 H   0  0  0  0  0  0  0  0  0  0  0  0
   -3.7069    1.5492    2.4413 H   0  0  0  0  0  0  0  0  0  0  0  0
   -0.9716    1.5914    2.6052 H   0  0  0  0  0  0  0  0  0  0  0  0
  1  2  1  0
  2  3  1  0
  3  4  1  0
  4  5  1  0
  5  6  2  0
  6  7  1  0
  7  8  2  0
  8  9  1  0
  9 10  2  0
  2 11  1  0
 11 12  2  0
 12 13  1  0
 13 14  1  0
 13 15  2  0
 15 16  1  0
 16 17  2  0
 17 18  1  0
 10  5  1  0
 17 11  1  0
  1 19  1  0
  1 20  1  0
  1 21  1  0
  2 22  1  0
  3 23  1  0
  4 24  1  0
  4 25  1  0
  6 26  1  0
  7 27  1  0
  8 28  1  0
  9 29  1  0
 10 30  1  0
 12 31  1  0
 15 32  1  0
 16 33  1  0
 18 34  1  0
M  END
>  <Batch_No>  (128) 
AE-848/42278673

>  <EC50_nM>  (128) 
603

>  <Set>  (128) 
Drug-like

>  <Molecular_Weight>  (128) 
261.74664

>  <ALogP>  (128) 
3.751

$$$$
MMV665901
     RDKit          3D

 49 52  0  0  0  0  0  0  0  0999 V2000
   10.0691    1.1991   -2.7018 Br  0  0  0  0  0  0  0  0  0  0  0  0
    8.5284    0.6770   -1.7043 C   0  0  0  0  0  0  0  0  0  0  0  0
    8.7527   -0.0410   -0.5319 C   0  0  0  0  0  0  0  0  0  0  0  0
    7.6528   -0.4211    0.1924 C   0  0  0  0  0  0  0  0  0  0  0  0
    6.3527   -0.1356   -0.1708 C   0  0  0  0  0  0  0  0  0  0  0  0
    6.1554    0.5804   -1.3422 C   0  0  0  0  0  0  0  0  0  0  0  0
    7.2387    0.9945   -2.1215 C   0  0  0  0  0  0  0  0  0  0  0  0
    5.1973   -0.5564    0.6258 C   0  0  0  0  0  0  0  0  0  0  0  0
    3.9214   -0.3469    0.3867 O   0  0  0  0  0  0  0  0  0  0  0  0
    3.1847   -0.8775    1.3298 C   0  0  0  0  0  0  0  0  0  0  0  0
    4.0331   -1.4718    2.2438 C   0  0  0  0  0  0  0  0  0  0  0  0
    5.3294   -1.2783    1.8124 C   0  0  0  0  0  0  0  0  0  0  0  0
    1.7186   -0.8790    1.4570 C   0  0  0  0  0  0  0  0  0  0  0  0
    1.1426   -1.4443    2.4437 O   0  0  0  0  0  0  0  0  0  0  0  0
    0.9037   -0.2494    0.4820 N   0  0  0  0  0  0  0  0  0  0  0  0
   -0.5018   -0.2642    0.6261 C   0  0  0  0  0  0  0  0  0  0  0  0
   -1.2221    0.7026    1.2927 C   0  0  0  0  0  0  0  0  0  0  0  0
   -2.6064    0.5979    1.3798 C   0  0  0  0  0  0  0  0  0  0  0  0
   -3.3000   -0.4537    0.8156 C   0  0  0  0  0  0  0  0  0  0  0  0
   -4.7871   -0.5698    0.9070 C   0  0  0  0  0  0  0  0  0  0  0  0
   -5.3638    0.0972   -0.2193 N   0  0  0  0  0  0  0  0  0  0  0  0
   -5.0606    1.4912   -0.3322 C   0  0  0  0  0  0  0  0  0  0  0  0
   -5.9272    2.0411   -1.4671 C   0  0  0  0  0  0  0  0  0  0  0  0
   -6.2536    1.0424   -2.3847 O   0  0  0  0  0  0  0  0  0  0  0  0
   -7.0974    0.0868   -1.8590 C   0  0  0  0  0  0  0  0  0  0  0  0
   -6.7680   -0.1787   -0.3896 C   0  0  0  0  0  0  0  0  0  0  0  0
   -2.5719   -1.4172    0.1501 C   0  0  0  0  0  0  0  0  0  0  0  0
   -1.1933   -1.3141    0.0627 C   0  0  0  0  0  0  0  0  0  0  0  0
    9.7574   -0.2957   -0.1946 H   0  0  0  0  0  0  0  0  0  0  0  0
    7.8363   -0.9820    1.1076 H   0  0  0  0  0  0  0  0  0  0  0  0
    5.1499    0.8407   -1.6887 H   0  0  0  0  0  0  0  0  0  0  0  0
    7.1059    1.5526   -3.0363 H   0  0  0  0  0  0  0  0  0  0  0  0
    3.7233   -1.9861    3.1235 H   0  0  0  0  0  0  0  0  0  0  0  0
    6.2656   -1.6041    2.2733 H   0  0  0  0  0  0  0  0  0  0  0  0
    1.4065    0.2074   -0.3184 H   0  0  0  0  0  0  0  0  0  0  0  0
   -0.6958    1.5298    1.7386 H   0  0  0  0  0  0  0  0  0  0  0  0
   -3.1680    1.3662    1.9084 H   0  0  0  0  0  0  0  0  0  0  0  0
   -5.1250   -1.6108    0.8917 H   0  0  0  0  0  0  0  0  0  0  0  0
   -5.1004   -0.0160    1.8155 H   0  0  0  0  0  0  0  0  0  0  0  0
   -3.9758    1.5833   -0.5861 H   0  0  0  0  0  0  0  0  0  0  0  0
   -5.3018    2.0973    0.5470 H   0  0  0  0  0  0  0  0  0  0  0  0
   -5.3260    2.7911   -2.0065 H   0  0  0  0  0  0  0  0  0  0  0  0
   -6.8401    2.5303   -1.1136 H   0  0  0  0  0  0  0  0  0  0  0  0
   -8.1666    0.3721   -1.9384 H   0  0  0  0  0  0  0  0  0  0  0  0
   -6.9294   -0.8601   -2.3822 H   0  0  0  0  0  0  0  0  0  0  0  0
   -7.4162    0.4460    0.2467 H   0  0  0  0  0  0  0  0  0  0  0  0
   -6.9414   -1.2496   -0.1375 H   0  0  0  0  0  0  0  0  0  0  0  0
   -3.1189   -2.2376   -0.2894 H   0  0  0  0  0  0  0  0  0  0  0  0
   -0.6668   -2.0859   -0.4643 H   0  0  0  0  0  0  0  0  0  0  0  0
  1  2  1  0
  2  3  2  0
  3  4  1  0
  4  5  2  0
  5  6  1  0
  6  7  2  0
  5  8  1  0
  8  9  1  0
  9 10  1  0
 10 11  2  0
 11 12  1  0
 10 13  1  0
 13 14  2  0
 13 15  1  0
 15 16  1  0
 16 17  2  0
 17 18  1  0
 18 19  2  0
 19 20  1  0
 20 21  1  0
 21 22  1  0
 22 23  1  0
 23 24  1  0
 24 25  1  0
 25 26  1  0
 19 27  1  0
 27 28  2  0
  7  2  1  0
 12  8  2  0
 28 16  1  0
 26 21  1  0
  3 29  1  0
  4 30  1  0
  6 31  1  0
  7 32  1  0
 11 33  1  0
 12 34  1  0
 15 35  1  0
 17 36  1  0
 18 37  1  0
 20 38  1  0
 20 39  1  0
 22 40  1  0
 22 41  1  0
 23 42  1  0
 23 43  1  0
 25 44  1  0
 25 45  1  0
 26 46  1  0
 26 47  1  0
 27 48  1  0
 28 49  1  0
M  END
>  <Batch_No>  (129) 
OSSK_607196

>  <EC50_nM>  (129) 
1360

>  <Set>  (129) 
Drug-like

>  <Molecular_Weight>  (129) 
441.31773

>  <ALogP>  (129) 
4.329

$$$$
MMV666069
     RDKit          3D

 65 68  0  0  0  0  0  0  0  0999 V2000
    9.8634    1.2339   -0.8116 C   0  0  0  0  0  0  0  0  0  0  0  0
    8.9622    0.1554   -0.9621 O   0  0  0  0  0  0  0  0  0  0  0  0
    7.7882    0.1301   -0.2259 C   0  0  0  0  0  0  0  0  0  0  0  0
    7.4502    1.1234    0.6617 C   0  0  0  0  0  0  0  0  0  0  0  0
    6.2681    1.0484    1.3696 C   0  0  0  0  0  0  0  0  0  0  0  0
    5.3770   -0.0084    1.2280 C   0  0  0  0  0  0  0  0  0  0  0  0
    4.1342   -0.0188    2.0208 C   0  0  0  0  0  0  0  0  0  0  0  0
    2.9697    0.6295    1.3809 C   0  0  0  0  0  0  0  0  0  0  0  0
    2.6510   -0.0164    0.1405 N   0  0  0  0  0  0  0  0  0  0  0  0
    2.1438   -1.3341    0.3479 C   0  0  0  0  0  0  0  0  0  0  0  0
    0.6515   -1.1760    0.6383 C   0  0  0  0  0  0  0  0  0  0  0  0
   -0.0166   -0.9566   -0.7009 C   0  0  0  0  0  0  0  0  0  0  0  0
   -1.4805   -0.6158   -0.5325 C   0  0  0  0  0  0  0  0  0  0  0  0
   -2.2421   -1.6000    0.1133 N   0  0  0  0  0  0  0  0  0  0  0  0
   -2.4750   -2.8320   -0.5330 C   0  0  0  0  0  0  0  0  0  0  0  0
   -3.0554   -1.2466    1.2117 C   0  0  0  0  0  0  0  0  0  0  0  0
   -4.0461   -0.2220    0.7962 C   0  0  0  0  0  0  0  0  0  0  0  0
   -3.8979    1.1491    0.8742 C   0  0  0  0  0  0  0  0  0  0  0  0
   -5.0211    1.7089    0.3903 N   0  0  0  0  0  0  0  0  0  0  0  0
   -5.8767    0.7580    0.0082 N   0  0  0  0  0  0  0  0  0  0  0  0
   -5.3140   -0.4429    0.2419 C   0  0  0  0  0  0  0  0  0  0  0  0
   -7.1624    0.9971   -0.5529 C   0  0  0  0  0  0  0  0  0  0  0  0
   -7.9254   -0.0423   -1.0122 C   0  0  0  0  0  0  0  0  0  0  0  0
   -9.1804    0.1782   -1.5640 C   0  0  0  0  0  0  0  0  0  0  0  0
   -9.6412    1.4927   -1.6365 C   0  0  0  0  0  0  0  0  0  0  0  0
   -8.8963    2.5598   -1.1825 C   0  0  0  0  0  0  0  0  0  0  0  0
   -7.6566    2.2771   -0.6443 C   0  0  0  0  0  0  0  0  0  0  0  0
    0.7438    0.1131   -1.4315 C   0  0  0  0  0  0  0  0  0  0  0  0
    1.7850    0.8203   -0.6367 C   0  0  0  0  0  0  0  0  0  0  0  0
    5.7310   -0.9977    0.3327 C   0  0  0  0  0  0  0  0  0  0  0  0
    6.9157   -0.9341   -0.3844 C   0  0  0  0  0  0  0  0  0  0  0  0
   10.8741    0.8918   -1.1649 H   0  0  0  0  0  0  0  0  0  0  0  0
    9.4879    2.1124   -1.3330 H   0  0  0  0  0  0  0  0  0  0  0  0
    9.9981    1.4680    0.2847 H   0  0  0  0  0  0  0  0  0  0  0  0
    8.0903    1.9702    0.8233 H   0  0  0  0  0  0  0  0  0  0  0  0
    5.9877    1.8400    2.0829 H   0  0  0  0  0  0  0  0  0  0  0  0
    4.3762    0.5301    2.9858 H   0  0  0  0  0  0  0  0  0  0  0  0
    3.9098   -1.0414    2.3480 H   0  0  0  0  0  0  0  0  0  0  0  0
    2.0992    0.4964    2.0911 H   0  0  0  0  0  0  0  0  0  0  0  0
    3.0510    1.7325    1.2885 H   0  0  0  0  0  0  0  0  0  0  0  0
    2.5733   -1.9157    1.1554 H   0  0  0  0  0  0  0  0  0  0  0  0
    2.2184   -1.9034   -0.6172 H   0  0  0  0  0  0  0  0  0  0  0  0
    0.4242   -0.3629    1.3300 H   0  0  0  0  0  0  0  0  0  0  0  0
    0.3380   -2.1329    1.1054 H   0  0  0  0  0  0  0  0  0  0  0  0
    0.1197   -1.9120   -1.2566 H   0  0  0  0  0  0  0  0  0  0  0  0
   -1.6066    0.3433   -0.0186 H   0  0  0  0  0  0  0  0  0  0  0  0
   -1.8846   -0.4629   -1.5725 H   0  0  0  0  0  0  0  0  0  0  0  0
   -2.9584   -2.6385   -1.5301 H   0  0  0  0  0  0  0  0  0  0  0  0
   -3.1596   -3.4354    0.0986 H   0  0  0  0  0  0  0  0  0  0  0  0
   -1.5685   -3.4180   -0.7718 H   0  0  0  0  0  0  0  0  0  0  0  0
   -3.6552   -2.1448    1.5378 H   0  0  0  0  0  0  0  0  0  0  0  0
   -2.5010   -0.9455    2.1219 H   0  0  0  0  0  0  0  0  0  0  0  0
   -3.0675    1.7321    1.2454 H   0  0  0  0  0  0  0  0  0  0  0  0
   -5.7250   -1.4341    0.0538 H   0  0  0  0  0  0  0  0  0  0  0  0
   -7.6031   -1.0723   -0.9729 H   0  0  0  0  0  0  0  0  0  0  0  0
   -9.7828   -0.6580   -1.9284 H   0  0  0  0  0  0  0  0  0  0  0  0
  -10.6278    1.6791   -2.0694 H   0  0  0  0  0  0  0  0  0  0  0  0
   -9.2049    3.5827   -1.2165 H   0  0  0  0  0  0  0  0  0  0  0  0
   -7.0212    3.0814   -0.2685 H   0  0  0  0  0  0  0  0  0  0  0  0
   -0.0106    0.8992   -1.7324 H   0  0  0  0  0  0  0  0  0  0  0  0
    1.1667   -0.2522   -2.3913 H   0  0  0  0  0  0  0  0  0  0  0  0
    2.4568    1.3279   -1.3908 H   0  0  0  0  0  0  0  0  0  0  0  0
    1.4132    1.6510   -0.0032 H   0  0  0  0  0  0  0  0  0  0  0  0
    5.0494   -1.8150    0.2177 H   0  0  0  0  0  0  0  0  0  0  0  0
    7.1957   -1.7241   -1.0978 H   0  0  0  0  0  0  0  0  0  0  0  0
  1  2  1  0
  2  3  1  0
  3  4  2  0
  4  5  1  0
  5  6  2  0
  6  7  1  0
  7  8  1  0
  8  9  1  0
  9 10  1  0
 10 11  1  0
 11 12  1  0
 12 13  1  0
 13 14  1  0
 14 15  1  0
 14 16  1  0
 16 17  1  0
 17 18  1  0
 18 19  2  0
 19 20  1  0
 20 21  1  0
 20 22  1  0
 22 23  2  0
 23 24  1  0
 24 25  2  0
 25 26  1  0
 26 27  2  0
 12 28  1  0
 28 29  1  0
  6 30  1  0
 30 31  2  0
 31  3  1  0
 29  9  1  0
 21 17  2  0
 27 22  1  0
  1 32  1  0
  1 33  1  0
  1 34  1  0
  4 35  1  0
  5 36  1  0
  7 37  1  0
  7 38  1  0
  8 39  1  0
  8 40  1  0
 10 41  1  0
 10 42  1  0
 11 43  1  0
 11 44  1  0
 12 45  1  0
 13 46  1  0
 13 47  1  0
 15 48  1  0
 15 49  1  0
 15 50  1  0
 16 51  1  0
 16 52  1  0
 18 53  1  0
 21 54  1  0
 23 55  1  0
 24 56  1  0
 25 57  1  0
 26 58  1  0
 27 59  1  0
 28 60  1  0
 28 61  1  0
 29 62  1  0
 29 63  1  0
 30 64  1  0
 31 65  1  0
M  END
>  <Batch_No>  (130) 
67378588

>  <EC50_nM>  (130) 
1430

>  <Set>  (130) 
Drug-like

>  <Molecular_Weight>  (130) 
418.57436

>  <ALogP>  (130) 
4.707

$$$$
MMV666080
     RDKit          3D

 45 48  0  0  0  0  0  0  0  0999 V2000
   -1.1624    0.8213    1.2448 O   0  0  0  0  0  0  0  0  0  0  0  0
   -1.7364   -0.1069    0.4049 C   0  0  0  0  0  0  0  0  0  0  0  0
   -1.1171   -0.4290   -0.7851 C   0  0  0  0  0  0  0  0  0  0  0  0
   -1.7808   -1.3823   -1.5666 C   0  0  0  0  0  0  0  0  0  0  0  0
   -2.9639   -1.9577   -1.1793 C   0  0  0  0  0  0  0  0  0  0  0  0
   -3.5520   -1.6112    0.0152 C   0  0  0  0  0  0  0  0  0  0  0  0
   -4.7463   -2.2171    0.3665 C   0  0  0  0  0  0  0  0  0  0  0  0
   -5.2927   -1.8320    1.5763 C   0  0  0  0  0  0  0  0  0  0  0  0
   -4.6366   -0.8974    2.3365 C   0  0  0  0  0  0  0  0  0  0  0  0
   -3.4769   -0.3164    1.9838 N   0  0  0  0  0  0  0  0  0  0  0  0
   -2.9298   -0.6763    0.8132 C   0  0  0  0  0  0  0  0  0  0  0  0
    0.1560    0.1692   -1.2327 C   0  0  0  0  0  0  0  0  0  0  0  0
    1.1747    0.0131   -0.2139 N   0  0  0  0  0  0  0  0  0  0  0  0
    2.3569   -0.7734   -0.4220 C   0  0  0  0  0  0  0  0  0  0  0  0
    2.4331   -1.3196   -1.5730 O   0  0  0  0  0  0  0  0  0  0  0  0
    3.3819   -0.9422    0.5760 C   0  0  0  0  0  0  0  0  0  0  0  0
    3.3578   -0.3832    1.8332 C   0  0  0  0  0  0  0  0  0  0  0  0
    4.3589   -0.5652    2.7678 C   0  0  0  0  0  0  0  0  0  0  0  0
    5.4565   -1.3526    2.4360 C   0  0  0  0  0  0  0  0  0  0  0  0
    5.4719   -1.9059    1.1804 C   0  0  0  0  0  0  0  0  0  0  0  0
    4.4789   -1.7292    0.2446 C   0  0  0  0  0  0  0  0  0  0  0  0
   -0.0047    1.5881   -1.5669 C   0  0  0  0  0  0  0  0  0  0  0  0
   -1.2639    2.1247   -1.6843 C   0  0  0  0  0  0  0  0  0  0  0  0
   -1.4623    3.4674   -2.0005 C   0  0  0  0  0  0  0  0  0  0  0  0
   -0.3714    4.2994   -2.2056 C   0  0  0  0  0  0  0  0  0  0  0  0
    0.9008    3.7515   -2.0855 C   0  0  0  0  0  0  0  0  0  0  0  0
    1.0738    2.4184   -1.7715 C   0  0  0  0  0  0  0  0  0  0  0  0
   -0.9760    0.7236    2.2167 H   0  0  0  0  0  0  0  0  0  0  0  0
   -1.3242   -1.6608   -2.5090 H   0  0  0  0  0  0  0  0  0  0  0  0
   -3.4234   -2.6854   -1.8277 H   0  0  0  0  0  0  0  0  0  0  0  0
   -5.2120   -2.9483   -0.2805 H   0  0  0  0  0  0  0  0  0  0  0  0
   -6.2271   -2.2665    1.9137 H   0  0  0  0  0  0  0  0  0  0  0  0
   -5.0854   -0.6083    3.2872 H   0  0  0  0  0  0  0  0  0  0  0  0
    0.5011   -0.4180   -2.1321 H   0  0  0  0  0  0  0  0  0  0  0  0
    1.0788    0.4744    0.7135 H   0  0  0  0  0  0  0  0  0  0  0  0
    2.5286    0.2255    2.1160 H   0  0  0  0  0  0  0  0  0  0  0  0
    4.2685   -0.0911    3.7398 H   0  0  0  0  0  0  0  0  0  0  0  0
    6.2568   -1.5050    3.1671 H   0  0  0  0  0  0  0  0  0  0  0  0
    6.3156   -2.5331    0.8744 H   0  0  0  0  0  0  0  0  0  0  0  0
    4.5546   -2.2032   -0.7468 H   0  0  0  0  0  0  0  0  0  0  0  0
   -2.1615    1.5297   -1.5367 H   0  0  0  0  0  0  0  0  0  0  0  0
   -2.4729    3.8801   -2.0904 H   0  0  0  0  0  0  0  0  0  0  0  0
   -0.5303    5.3477   -2.4524 H   0  0  0  0  0  0  0  0  0  0  0  0
    1.7365    4.4333   -2.2532 H   0  0  0  0  0  0  0  0  0  0  0  0
    2.0682    2.0497   -1.6918 H   0  0  0  0  0  0  0  0  0  0  0  0
  1  2  1  0
  2  3  2  0
  3  4  1  0
  4  5  2  0
  5  6  1  0
  6  7  2  0
  7  8  1  0
  8  9  2  0
  9 10  1  0
 10 11  2  0
  3 12  1  0
 12 13  1  0
 13 14  1  0
 14 15  2  0
 14 16  1  0
 16 17  2  0
 17 18  1  0
 18 19  2  0
 19 20  1  0
 20 21  2  0
 12 22  1  0
 22 23  2  0
 23 24  1  0
 24 25  2  0
 25 26  1  0
 26 27  2  0
 11  2  1  0
 11  6  1  0
 21 16  1  0
 27 22  1  0
  1 28  1  0
  4 29  1  0
  5 30  1  0
  7 31  1  0
  8 32  1  0
  9 33  1  0
 12 34  1  0
 13 35  1  0
 17 36  1  0
 18 37  1  0
 19 38  1  0
 20 39  1  0
 21 40  1  0
 23 41  1  0
 24 42  1  0
 25 43  1  0
 26 44  1  0
 27 45  1  0
M  END
>  <Batch_No>  (131) 
BAS 01540904

>  <EC50_nM>  (131) 
1170

>  <Set>  (131) 
Drug-like

>  <Molecular_Weight>  (131) 
354.40122

>  <ALogP>  (131) 
4.178

$$$$
MMV666081
     RDKit          3D

 30 31  0  0  0  0  0  0  0  0999 V2000
   -4.1388   -0.4708    0.5014 C   0  0  0  0  0  0  0  0  0  0  0  0
   -2.6373   -0.7492    0.5709 C   0  0  0  0  0  0  0  0  0  0  0  0
   -1.9741    0.4020   -0.0835 C   0  0  0  0  0  0  0  0  0  0  0  0
   -0.5036    0.3677   -0.1436 C   0  0  0  0  0  0  0  0  0  0  0  0
    0.1265    1.4485   -0.7583 C   0  0  0  0  0  0  0  0  0  0  0  0
   -0.6580    2.5783   -1.3239 C   0  0  0  0  0  0  0  0  0  0  0  0
    1.4617    1.4931   -0.8536 N   0  0  0  0  0  0  0  0  0  0  0  0
    2.2368    0.5183   -0.3708 C   0  0  0  0  0  0  0  0  0  0  0  0
    3.6175    0.5674   -0.4710 C   0  0  0  0  0  0  0  0  0  0  0  0
    4.3920   -0.4538    0.0368 C   0  0  0  0  0  0  0  0  0  0  0  0
    3.8252   -1.5540    0.6586 C   0  0  0  0  0  0  0  0  0  0  0  0
    2.4489   -1.5943    0.7538 C   0  0  0  0  0  0  0  0  0  0  0  0
    1.6620   -0.5919    0.2568 C   0  0  0  0  0  0  0  0  0  0  0  0
    0.2812   -0.6321    0.3521 C   0  0  0  0  0  0  0  0  0  0  0  0
   -0.3265   -1.7091    0.9636 O   0  0  0  0  0  0  0  0  0  0  0  0
   -4.3438    0.6294    0.3511 H   0  0  0  0  0  0  0  0  0  0  0  0
   -4.6589   -0.7277    1.4372 H   0  0  0  0  0  0  0  0  0  0  0  0
   -4.5954   -0.9970   -0.3671 H   0  0  0  0  0  0  0  0  0  0  0  0
   -2.4776   -1.6939    0.0095 H   0  0  0  0  0  0  0  0  0  0  0  0
   -2.4174   -0.8594    1.6510 H   0  0  0  0  0  0  0  0  0  0  0  0
   -2.2667    1.3409    0.4319 H   0  0  0  0  0  0  0  0  0  0  0  0
   -2.3645    0.4665   -1.1196 H   0  0  0  0  0  0  0  0  0  0  0  0
   -1.7194    2.3721   -1.4587 H   0  0  0  0  0  0  0  0  0  0  0  0
   -0.5642    3.4047   -0.5624 H   0  0  0  0  0  0  0  0  0  0  0  0
   -0.1285    2.8574   -2.2805 H   0  0  0  0  0  0  0  0  0  0  0  0
    4.1206    1.4144   -0.9532 H   0  0  0  0  0  0  0  0  0  0  0  0
    5.4669   -0.3871   -0.0564 H   0  0  0  0  0  0  0  0  0  0  0  0
    4.4494   -2.3384    1.0471 H   0  0  0  0  0  0  0  0  0  0  0  0
    2.0219   -2.4592    1.2416 H   0  0  0  0  0  0  0  0  0  0  0  0
   -0.3358   -2.6424    0.5391 H   0  0  0  0  0  0  0  0  0  0  0  0
  1  2  1  0
  2  3  1  0
  3  4  1  0
  4  5  2  0
  5  6  1  0
  5  7  1  0
  7  8  2  0
  8  9  1  0
  9 10  2  0
 10 11  1  0
 11 12  2  0
 12 13  1  0
 13 14  2  0
 14 15  1  0
 14  4  1  0
 13  8  1  0
  1 16  1  0
  1 17  1  0
  1 18  1  0
  2 19  1  0
  2 20  1  0
  3 21  1  0
  3 22  1  0
  6 23  1  0
  6 24  1  0
  6 25  1  0
  9 26  1  0
 10 27  1  0
 11 28  1  0
 12 29  1  0
 15 30  1  0
M  END
>  <Batch_No>  (132) 
BAS 00333853

>  <EC50_nM>  (132) 
ND

>  <Set>  (132) 
Drug-like

>  <Molecular_Weight>  (132) 
201.2643

>  <ALogP>  (132) 
3.455

$$$$
MMV666009
     RDKit          3D

 36 39  0  0  0  0  0  0  0  0999 V2000
   -1.6341    0.3290   -2.7514 C   0  0  0  0  0  0  0  0  0  0  0  0
   -1.3887   -0.0486   -1.3756 N   0  0  0  0  0  0  0  0  0  0  0  0
   -0.4019   -0.9212   -0.8074 C   0  0  0  0  0  0  0  0  0  0  0  0
   -1.0163   -1.2884    0.4387 N   0  0  0  0  0  0  0  0  0  0  0  0
   -0.7512   -2.4837    1.2427 C   0  0  0  0  0  0  0  0  0  0  0  0
   -1.9744   -0.2978    0.8328 C   0  0  0  0  0  0  0  0  0  0  0  0
   -2.6263   -0.0222    2.0177 C   0  0  0  0  0  0  0  0  0  0  0  0
   -3.5302    1.0308    2.1169 C   0  0  0  0  0  0  0  0  0  0  0  0
   -3.7437    1.7834    0.9804 C   0  0  0  0  0  0  0  0  0  0  0  0
   -3.1026    1.5283   -0.2213 C   0  0  0  0  0  0  0  0  0  0  0  0
   -2.2003    0.4686   -0.3006 C   0  0  0  0  0  0  0  0  0  0  0  0
    0.9397   -0.3619   -0.6771 C   0  0  0  0  0  0  0  0  0  0  0  0
    1.4894    0.3442   -1.7275 C   0  0  0  0  0  0  0  0  0  0  0  0
    2.7718    0.8863   -1.6201 C   0  0  0  0  0  0  0  0  0  0  0  0
    3.5158    0.7269   -0.4611 C   0  0  0  0  0  0  0  0  0  0  0  0
    4.7806    1.1291   -0.0489 O   0  0  0  0  0  0  0  0  0  0  0  0
    5.1431    0.4416    1.1328 C   0  0  0  0  0  0  0  0  0  0  0  0
    3.8990    0.0024    1.6227 O   0  0  0  0  0  0  0  0  0  0  0  0
    2.9699    0.0215    0.5917 C   0  0  0  0  0  0  0  0  0  0  0  0
    1.6844   -0.5149    0.4679 C   0  0  0  0  0  0  0  0  0  0  0  0
   -2.7339    0.3407   -2.9854 H   0  0  0  0  0  0  0  0  0  0  0  0
   -1.0992   -0.3932   -3.4084 H   0  0  0  0  0  0  0  0  0  0  0  0
   -1.2563    1.3322   -2.9742 H   0  0  0  0  0  0  0  0  0  0  0  0
   -0.3612   -1.8256   -1.4757 H   0  0  0  0  0  0  0  0  0  0  0  0
   -1.6598   -3.1440    1.2990 H   0  0  0  0  0  0  0  0  0  0  0  0
   -0.5934   -2.1375    2.2927 H   0  0  0  0  0  0  0  0  0  0  0  0
    0.0851   -3.0598    0.8243 H   0  0  0  0  0  0  0  0  0  0  0  0
   -2.4376   -0.6360    2.9038 H   0  0  0  0  0  0  0  0  0  0  0  0
   -4.0387    1.2382    3.0589 H   0  0  0  0  0  0  0  0  0  0  0  0
   -4.4509    2.5997    1.0755 H   0  0  0  0  0  0  0  0  0  0  0  0
   -3.2931    2.1466   -1.1128 H   0  0  0  0  0  0  0  0  0  0  0  0
    0.9919    0.5211   -2.6654 H   0  0  0  0  0  0  0  0  0  0  0  0
    3.2220    1.4386   -2.4204 H   0  0  0  0  0  0  0  0  0  0  0  0
    5.6699    1.0940    1.8605 H   0  0  0  0  0  0  0  0  0  0  0  0
    5.8100   -0.4307    0.9513 H   0  0  0  0  0  0  0  0  0  0  0  0
    1.3213   -1.0508    1.3227 H   0  0  0  0  0  0  0  0  0  0  0  0
  1  2  1  0
  2  3  1  0
  3  4  1  0
  4  5  1  0
  4  6  1  0
  6  7  2  0
  7  8  1  0
  8  9  2  0
  9 10  1  0
 10 11  2  0
  3 12  1  0
 12 13  2  0
 13 14  1  0
 14 15  2  0
 15 16  1  0
 16 17  1  0
 17 18  1  0
 18 19  1  0
 19 20  2  0
 11  2  1  0
 11  6  1  0
 20 12  1  0
 19 15  1  0
  1 21  1  0
  1 22  1  0
  1 23  1  0
  3 24  1  0
  5 25  1  0
  5 26  1  0
  5 27  1  0
  7 28  1  0
  8 29  1  0
  9 30  1  0
 10 31  1  0
 13 32  1  0
 14 33  1  0
 17 34  1  0
 17 35  1  0
 20 36  1  0
M  END
>  <Batch_No>  (133) 
5231213

>  <EC50_nM>  (133) 
994

>  <Set>  (133) 
Drug-like

>  <Molecular_Weight>  (133) 
268.31044

>  <ALogP>  (133) 
3.524

$$$$
MMV019313
     RDKit          3D

 55 58  0  0  0  0  0  0  0  0999 V2000
    6.0877   -2.8861   -0.6920 C   0  0  0  0  0  0  0  0  0  0  0  0
    5.3829   -1.6271   -0.4618 N   0  0  0  0  0  0  0  0  0  0  0  0
    4.1172   -1.5264   -0.8498 C   0  0  0  0  0  0  0  0  0  0  0  0
    3.5913   -2.5285   -1.3978 O   0  0  0  0  0  0  0  0  0  0  0  0
    3.3779   -0.3309   -0.6553 C   0  0  0  0  0  0  0  0  0  0  0  0
    2.1134   -0.0768   -0.9861 C   0  0  0  0  0  0  0  0  0  0  0  0
    1.5980    1.1461   -0.7063 C   0  0  0  0  0  0  0  0  0  0  0  0
    3.0139    2.0580    0.1073 S   0  0  0  0  0  0  0  0  0  0  0  0
    4.1070    0.6595   -0.0436 C   0  0  0  0  0  0  0  0  0  0  0  0
    5.4126    0.5421    0.3517 C   0  0  0  0  0  0  0  0  0  0  0  0
    6.0337    1.6033    0.9537 C   0  0  0  0  0  0  0  0  0  0  0  0
    7.3609    1.4618    1.3473 C   0  0  0  0  0  0  0  0  0  0  0  0
    8.0306    0.2681    1.1301 C   0  0  0  0  0  0  0  0  0  0  0  0
    7.4098   -0.8095    0.5222 C   0  0  0  0  0  0  0  0  0  0  0  0
    6.0975   -0.6585    0.1371 C   0  0  0  0  0  0  0  0  0  0  0  0
    0.2951    1.7767   -0.9114 C   0  0  0  0  0  0  0  0  0  0  0  0
    0.1373    2.9644   -0.5252 O   0  0  0  0  0  0  0  0  0  0  0  0
   -0.7056    1.0163   -1.5298 N   0  0  0  0  0  0  0  0  0  0  0  0
   -2.0205    1.6279   -1.7468 C   0  0  0  0  0  0  0  0  0  0  0  0
   -2.6698    2.0520   -0.4756 C   0  0  0  0  0  0  0  0  0  0  0  0
   -2.8623    0.8586    0.4133 C   0  0  0  0  0  0  0  0  0  0  0  0
   -3.7226   -0.0923   -0.2696 N   0  0  0  0  0  0  0  0  0  0  0  0
   -3.9090   -1.2944    0.5200 C   0  0  0  0  0  0  0  0  0  0  0  0
   -4.3718   -1.0487    1.9166 C   0  0  0  0  0  0  0  0  0  0  0  0
   -5.7082   -0.3509    1.8982 C   0  0  0  0  0  0  0  0  0  0  0  0
   -6.6068   -0.7946    0.7837 C   0  0  0  0  0  0  0  0  0  0  0  0
   -6.1578   -0.4149   -0.5859 C   0  0  0  0  0  0  0  0  0  0  0  0
   -4.9874    0.5218   -0.6199 C   0  0  0  0  0  0  0  0  0  0  0  0
    5.3848   -3.6655   -1.0483 H   0  0  0  0  0  0  0  0  0  0  0  0
    6.4814   -3.2063    0.2806 H   0  0  0  0  0  0  0  0  0  0  0  0
    6.8408   -2.7821   -1.4952 H   0  0  0  0  0  0  0  0  0  0  0  0
    1.4521   -0.8307   -1.4884 H   0  0  0  0  0  0  0  0  0  0  0  0
    5.5341    2.5616    1.1406 H   0  0  0  0  0  0  0  0  0  0  0  0
    7.8474    2.3003    1.8210 H   0  0  0  0  0  0  0  0  0  0  0  0
    9.0704    0.1814    1.4479 H   0  0  0  0  0  0  0  0  0  0  0  0
    7.9169   -1.7543    0.3436 H   0  0  0  0  0  0  0  0  0  0  0  0
   -0.4966    0.0311   -1.8234 H   0  0  0  0  0  0  0  0  0  0  0  0
   -2.6164    0.9018   -2.3151 H   0  0  0  0  0  0  0  0  0  0  0  0
   -1.8499    2.4931   -2.4421 H   0  0  0  0  0  0  0  0  0  0  0  0
   -3.6866    2.4511   -0.7618 H   0  0  0  0  0  0  0  0  0  0  0  0
   -2.1345    2.8795    0.0096 H   0  0  0  0  0  0  0  0  0  0  0  0
   -1.9029    0.3789    0.6501 H   0  0  0  0  0  0  0  0  0  0  0  0
   -3.3351    1.2418    1.3486 H   0  0  0  0  0  0  0  0  0  0  0  0
   -2.9202   -1.8136    0.5484 H   0  0  0  0  0  0  0  0  0  0  0  0
   -4.5810   -1.9607   -0.0413 H   0  0  0  0  0  0  0  0  0  0  0  0
   -4.4401   -2.0315    2.4255 H   0  0  0  0  0  0  0  0  0  0  0  0
   -3.6716   -0.4228    2.4686 H   0  0  0  0  0  0  0  0  0  0  0  0
   -6.2300   -0.6553    2.8491 H   0  0  0  0  0  0  0  0  0  0  0  0
   -5.6016    0.7411    1.9562 H   0  0  0  0  0  0  0  0  0  0  0  0
   -7.6332   -0.4087    1.0455 H   0  0  0  0  0  0  0  0  0  0  0  0
   -6.6873   -1.9023    0.8150 H   0  0  0  0  0  0  0  0  0  0  0  0
   -6.0385   -1.2762   -1.2855 H   0  0  0  0  0  0  0  0  0  0  0  0
   -7.0129    0.1647   -1.0441 H   0  0  0  0  0  0  0  0  0  0  0  0
   -5.2343    1.3825    0.0209 H   0  0  0  0  0  0  0  0  0  0  0  0
   -4.9001    0.8843   -1.6622 H   0  0  0  0  0  0  0  0  0  0  0  0
  1  2  1  0
  2  3  1  0
  3  4  2  0
  3  5  1  0
  5  6  1  0
  6  7  2  0
  7  8  1  0
  8  9  1  0
  9 10  1  0
 10 11  2  0
 11 12  1  0
 12 13  2  0
 13 14  1  0
 14 15  2  0
  7 16  1  0
 16 17  2  0
 16 18  1  0
 18 19  1  0
 19 20  1  0
 20 21  1  0
 21 22  1  0
 22 23  1  0
 23 24  1  0
 24 25  1  0
 25 26  1  0
 26 27  1  0
 27 28  1  0
 15  2  1  0
  9  5  2  0
 15 10  1  0
 28 22  1  0
  1 29  1  0
  1 30  1  0
  1 31  1  0
  6 32  1  0
 11 33  1  0
 12 34  1  0
 13 35  1  0
 14 36  1  0
 18 37  1  0
 19 38  1  0
 19 39  1  0
 20 40  1  0
 20 41  1  0
 21 42  1  0
 21 43  1  0
 23 44  1  0
 23 45  1  0
 24 46  1  0
 24 47  1  0
 25 48  1  0
 25 49  1  0
 26 50  1  0
 26 51  1  0
 27 52  1  0
 27 53  1  0
 28 54  1  0
 28 55  1  0
M  END
>  <Batch_No>  (134) 
C498-0579

>  <EC50_nM>  (134) 
669

>  <Set>  (134) 
Drug-like

>  <Molecular_Weight>  (134) 
397.53367

>  <ALogP>  (134) 
3.536

$$$$
MMV019746
     RDKit          3D

 70 74  0  0  0  0  0  0  0  0999 V2000
   -7.8854    1.3586   -0.2658 C   0  0  0  0  0  0  0  0  0  0  0  0
   -7.9417   -0.1177   -0.3365 C   0  0  0  0  0  0  0  0  0  0  0  0
   -9.2093   -0.6867   -0.5080 C   0  0  0  0  0  0  0  0  0  0  0  0
   -9.3416   -2.0692   -0.5515 C   0  0  0  0  0  0  0  0  0  0  0  0
   -8.2116   -2.8721   -0.4246 C   0  0  0  0  0  0  0  0  0  0  0  0
   -8.3749   -4.6358   -0.4776 Cl  0  0  0  0  0  0  0  0  0  0  0  0
   -6.9601   -2.2915   -0.2560 C   0  0  0  0  0  0  0  0  0  0  0  0
   -6.8230   -0.9074   -0.2121 C   0  0  0  0  0  0  0  0  0  0  0  0
   -5.5003   -0.3664   -0.0758 N   0  0  0  0  0  0  0  0  0  0  0  0
   -4.7760    0.2044   -1.1841 C   0  0  0  0  0  0  0  0  0  0  0  0
   -3.8103    1.2895   -0.8113 C   0  0  0  0  0  0  0  0  0  0  0  0
   -3.1337    0.8746    0.4323 N   0  0  0  0  0  0  0  0  0  0  0  0
   -2.0334    1.7926    0.6955 C   0  0  0  0  0  0  0  0  0  0  0  0
   -1.2481    1.2799    1.8759 C   0  0  0  0  0  0  0  0  0  0  0  0
   -0.6774   -0.0961    1.5793 C   0  0  0  0  0  0  0  0  0  0  0  0
    0.2596   -0.1076    0.4830 N   0  0  0  0  0  0  0  0  0  0  0  0
    1.4843    0.6361    0.5597 C   0  0  0  0  0  0  0  0  0  0  0  0
    1.6704    1.2739    1.6285 O   0  0  0  0  0  0  0  0  0  0  0  0
    2.4735    0.6471   -0.5603 C   0  0  0  0  0  0  0  0  0  0  0  0
    2.9199   -0.6961   -1.0020 C   0  0  0  0  0  0  0  0  0  0  0  0
    4.2006   -1.2186   -0.4693 C   0  0  0  0  0  0  0  0  0  0  0  0
    5.0699   -0.2488    0.1528 N   0  0  0  0  0  0  0  0  0  0  0  0
    4.4152    0.8255    0.9116 C   0  0  0  0  0  0  0  0  0  0  0  0
    3.5945    1.5726   -0.1184 C   0  0  0  0  0  0  0  0  0  0  0  0
    6.5012   -0.2999    0.0484 C   0  0  0  0  0  0  0  0  0  0  0  0
    7.2765    0.4936   -0.7168 N   0  0  0  0  0  0  0  0  0  0  0  0
    8.5798    0.1406   -0.5637 C   0  0  0  0  0  0  0  0  0  0  0  0
    9.7628    0.6280   -1.1139 C   0  0  0  0  0  0  0  0  0  0  0  0
   10.9997    0.0617   -0.7733 C   0  0  0  0  0  0  0  0  0  0  0  0
   10.9648   -0.9861    0.1230 C   0  0  0  0  0  0  0  0  0  0  0  0
    9.8159   -1.4844    0.6795 C   0  0  0  0  0  0  0  0  0  0  0  0
    8.6105   -0.9220    0.3382 C   0  0  0  0  0  0  0  0  0  0  0  0
    7.3107   -1.1593    0.6892 N   0  0  0  0  0  0  0  0  0  0  0  0
   -4.1468    0.8888    1.4819 C   0  0  0  0  0  0  0  0  0  0  0  0
   -4.9400   -0.4121    1.2762 C   0  0  0  0  0  0  0  0  0  0  0  0
   -7.8937    1.6835    0.8064 H   0  0  0  0  0  0  0  0  0  0  0  0
   -8.8322    1.8108   -0.6780 H   0  0  0  0  0  0  0  0  0  0  0  0
   -7.0671    1.8239   -0.8143 H   0  0  0  0  0  0  0  0  0  0  0  0
  -10.0947   -0.0511   -0.6081 H   0  0  0  0  0  0  0  0  0  0  0  0
  -10.2941   -2.5670   -0.6806 H   0  0  0  0  0  0  0  0  0  0  0  0
   -6.0764   -2.9199   -0.1576 H   0  0  0  0  0  0  0  0  0  0  0  0
   -5.4999    0.5414   -1.9571 H   0  0  0  0  0  0  0  0  0  0  0  0
   -4.1539   -0.6368   -1.6054 H   0  0  0  0  0  0  0  0  0  0  0  0
   -4.3199    2.2446   -0.6935 H   0  0  0  0  0  0  0  0  0  0  0  0
   -3.0083    1.2982   -1.5934 H   0  0  0  0  0  0  0  0  0  0  0  0
   -2.3755    2.8245    0.8290 H   0  0  0  0  0  0  0  0  0  0  0  0
   -1.3773    1.7062   -0.2082 H   0  0  0  0  0  0  0  0  0  0  0  0
   -1.8286    1.1959    2.8069 H   0  0  0  0  0  0  0  0  0  0  0  0
   -0.4295    2.0178    2.0987 H   0  0  0  0  0  0  0  0  0  0  0  0
   -0.1989   -0.4248    2.5352 H   0  0  0  0  0  0  0  0  0  0  0  0
   -1.5350   -0.7672    1.4093 H   0  0  0  0  0  0  0  0  0  0  0  0
    0.1075   -0.6428   -0.4145 H   0  0  0  0  0  0  0  0  0  0  0  0
    2.0205    1.1837   -1.4524 H   0  0  0  0  0  0  0  0  0  0  0  0
    2.9514   -0.6947   -2.1408 H   0  0  0  0  0  0  0  0  0  0  0  0
    2.0940   -1.4091   -0.7419 H   0  0  0  0  0  0  0  0  0  0  0  0
    4.7236   -1.7634   -1.2988 H   0  0  0  0  0  0  0  0  0  0  0  0
    3.9495   -2.0213    0.2949 H   0  0  0  0  0  0  0  0  0  0  0  0
    3.7643    0.3509    1.6699 H   0  0  0  0  0  0  0  0  0  0  0  0
    5.1835    1.4769    1.4018 H   0  0  0  0  0  0  0  0  0  0  0  0
    3.1288    2.4836    0.2830 H   0  0  0  0  0  0  0  0  0  0  0  0
    4.2339    1.7577   -0.9965 H   0  0  0  0  0  0  0  0  0  0  0  0
    9.7163    1.4699   -1.8254 H   0  0  0  0  0  0  0  0  0  0  0  0
   11.9190    0.4492   -1.2076 H   0  0  0  0  0  0  0  0  0  0  0  0
   11.9283   -1.4199    0.3820 H   0  0  0  0  0  0  0  0  0  0  0  0
    9.8082   -2.3080    1.3792 H   0  0  0  0  0  0  0  0  0  0  0  0
    7.0537   -1.9298    1.3745 H   0  0  0  0  0  0  0  0  0  0  0  0
   -4.8815    1.7110    1.3114 H   0  0  0  0  0  0  0  0  0  0  0  0
   -3.6656    0.8812    2.4487 H   0  0  0  0  0  0  0  0  0  0  0  0
   -4.2212   -1.2353    1.3995 H   0  0  0  0  0  0  0  0  0  0  0  0
   -5.7252   -0.5096    2.0432 H   0  0  0  0  0  0  0  0  0  0  0  0
  1  2  1  0
  2  3  2  0
  3  4  1  0
  4  5  2  0
  5  6  1  0
  5  7  1  0
  7  8  2  0
  8  9  1  0
  9 10  1  0
 10 11  1  0
 11 12  1  0
 12 13  1  0
 13 14  1  0
 14 15  1  0
 15 16  1  0
 16 17  1  0
 17 18  2  0
 17 19  1  0
 19 20  1  0
 20 21  1  0
 21 22  1  0
 22 23  1  0
 23 24  1  0
 22 25  1  0
 25 26  2  0
 26 27  1  0
 27 28  2  0
 28 29  1  0
 29 30  2  0
 30 31  1  0
 31 32  2  0
 32 33  1  0
 12 34  1  0
 34 35  1  0
  8  2  1  0
 35  9  1  0
 24 19  1  0
 33 25  1  0
 32 27  1  0
  1 36  1  0
  1 37  1  0
  1 38  1  0
  3 39  1  0
  4 40  1  0
  7 41  1  0
 10 42  1  0
 10 43  1  0
 11 44  1  0
 11 45  1  0
 13 46  1  0
 13 47  1  0
 14 48  1  0
 14 49  1  0
 15 50  1  0
 15 51  1  0
 16 52  1  0
 19 53  1  0
 20 54  1  0
 20 55  1  0
 21 56  1  0
 21 57  1  0
 23 58  1  0
 23 59  1  0
 24 60  1  0
 24 61  1  0
 28 62  1  0
 29 63  1  0
 30 64  1  0
 31 65  1  0
 33 66  1  0
 34 67  1  0
 34 68  1  0
 35 69  1  0
 35 70  1  0
M  END
>  <Batch_No>  (135) 
C797-0291

>  <EC50_nM>  (135) 
1330

>  <Set>  (135) 
Drug-like

>  <Molecular_Weight>  (135) 
495.05939

>  <ALogP>  (135) 
4.09

$$$$
MMV019064
     RDKit          3D

 63 67  0  0  0  0  0  0  0  0999 V2000
   -6.0029    4.4288    0.8947 C   0  0  0  0  0  0  0  0  0  0  0  0
   -5.6014    3.0820    1.0439 O   0  0  0  0  0  0  0  0  0  0  0  0
   -5.7699    2.1183    0.0776 C   0  0  0  0  0  0  0  0  0  0  0  0
   -6.3532    2.4077   -1.1250 C   0  0  0  0  0  0  0  0  0  0  0  0
   -6.4888    1.3734   -2.0557 C   0  0  0  0  0  0  0  0  0  0  0  0
   -6.0531    0.0984   -1.7835 C   0  0  0  0  0  0  0  0  0  0  0  0
   -5.4589   -0.1762   -0.5464 C   0  0  0  0  0  0  0  0  0  0  0  0
   -5.3242    0.8393    0.3712 C   0  0  0  0  0  0  0  0  0  0  0  0
   -5.0247   -1.5393   -0.3289 C   0  0  0  0  0  0  0  0  0  0  0  0
   -5.7904   -2.6093   -0.6483 N   0  0  0  0  0  0  0  0  0  0  0  0
   -5.1701   -3.7124   -0.3529 N   0  0  0  0  0  0  0  0  0  0  0  0
   -5.6530   -5.0523   -0.5419 C   0  0  0  0  0  0  0  0  0  0  0  0
   -3.9680   -3.3692    0.1734 C   0  0  0  0  0  0  0  0  0  0  0  0
   -2.4662   -4.0590    0.8521 S   0  0  0  0  0  0  0  0  0  0  0  0
   -1.7189   -2.3815    1.1522 C   0  0  0  0  0  0  0  0  0  0  0  0
   -2.6664   -1.5216    0.7161 C   0  0  0  0  0  0  0  0  0  0  0  0
   -3.8131   -2.0149    0.2169 C   0  0  0  0  0  0  0  0  0  0  0  0
   -0.3999   -2.2195    1.7344 C   0  0  0  0  0  0  0  0  0  0  0  0
    0.2695   -3.2112    2.0499 O   0  0  0  0  0  0  0  0  0  0  0  0
    0.0947   -0.9299    1.9299 N   0  0  0  0  0  0  0  0  0  0  0  0
    1.3846   -0.7294    2.4989 C   0  0  0  0  0  0  0  0  0  0  0  0
    2.5131   -1.3348    1.7202 C   0  0  0  0  0  0  0  0  0  0  0  0
    2.6442   -0.8307    0.3735 N   0  0  0  0  0  0  0  0  0  0  0  0
    3.7598   -1.4890   -0.2630 C   0  0  0  0  0  0  0  0  0  0  0  0
    5.0828   -0.8066   -0.0600 C   0  0  0  0  0  0  0  0  0  0  0  0
    4.9411    0.5621   -0.5349 N   0  0  0  0  0  0  0  0  0  0  0  0
    3.5859    1.0001   -0.8353 C   0  0  0  0  0  0  0  0  0  0  0  0
    2.6519    0.5874    0.2831 C   0  0  0  0  0  0  0  0  0  0  0  0
    6.0803    1.3775   -0.6785 C   0  0  0  0  0  0  0  0  0  0  0  0
    6.4894    1.9448   -1.8666 C   0  0  0  0  0  0  0  0  0  0  0  0
    7.6256    2.7220   -1.8605 C   0  0  0  0  0  0  0  0  0  0  0  0
    8.3657    2.9506   -0.7075 C   0  0  0  0  0  0  0  0  0  0  0  0
    7.9545    2.3849    0.4682 C   0  0  0  0  0  0  0  0  0  0  0  0
    6.8292    1.6109    0.4801 C   0  0  0  0  0  0  0  0  0  0  0  0
    6.4372    1.0538    1.6737 F   0  0  0  0  0  0  0  0  0  0  0  0
   -7.0785    4.5913    1.1161 H   0  0  0  0  0  0  0  0  0  0  0  0
   -5.8392    4.7459   -0.1499 H   0  0  0  0  0  0  0  0  0  0  0  0
   -5.4121    5.0945    1.5672 H   0  0  0  0  0  0  0  0  0  0  0  0
   -6.7080    3.3771   -1.3872 H   0  0  0  0  0  0  0  0  0  0  0  0
   -6.9441    1.5918   -2.9986 H   0  0  0  0  0  0  0  0  0  0  0  0
   -6.1739   -0.6927   -2.5359 H   0  0  0  0  0  0  0  0  0  0  0  0
   -4.8607    0.6097    1.3268 H   0  0  0  0  0  0  0  0  0  0  0  0
   -5.0131   -5.8250   -0.1174 H   0  0  0  0  0  0  0  0  0  0  0  0
   -5.7716   -5.2974   -1.6206 H   0  0  0  0  0  0  0  0  0  0  0  0
   -6.6646   -5.1794   -0.0655 H   0  0  0  0  0  0  0  0  0  0  0  0
   -2.4723   -0.4196    0.7814 H   0  0  0  0  0  0  0  0  0  0  0  0
   -0.5052   -0.1039    1.6480 H   0  0  0  0  0  0  0  0  0  0  0  0
    1.5333    0.3341    2.7222 H   0  0  0  0  0  0  0  0  0  0  0  0
    1.3767   -1.2419    3.4856 H   0  0  0  0  0  0  0  0  0  0  0  0
    2.4385   -2.4198    1.6899 H   0  0  0  0  0  0  0  0  0  0  0  0
    3.4628   -1.0898    2.2388 H   0  0  0  0  0  0  0  0  0  0  0  0
    3.5607   -1.5254   -1.3537 H   0  0  0  0  0  0  0  0  0  0  0  0
    3.8836   -2.5335    0.0632 H   0  0  0  0  0  0  0  0  0  0  0  0
    5.4073   -0.8774    0.9823 H   0  0  0  0  0  0  0  0  0  0  0  0
    5.8000   -1.3327   -0.7381 H   0  0  0  0  0  0  0  0  0  0  0  0
    3.2648    0.4523   -1.7437 H   0  0  0  0  0  0  0  0  0  0  0  0
    3.5586    2.0971   -1.0124 H   0  0  0  0  0  0  0  0  0  0  0  0
    1.6341    0.9235   -0.0724 H   0  0  0  0  0  0  0  0  0  0  0  0
    2.8758    1.1174    1.2238 H   0  0  0  0  0  0  0  0  0  0  0  0
    5.9143    1.7657   -2.7571 H   0  0  0  0  0  0  0  0  0  0  0  0
    7.9872    3.1920   -2.7804 H   0  0  0  0  0  0  0  0  0  0  0  0
    9.2614    3.5617   -0.6968 H   0  0  0  0  0  0  0  0  0  0  0  0
    8.4976    2.5294    1.4102 H   0  0  0  0  0  0  0  0  0  0  0  0
  1  2  1  0
  2  3  1  0
  3  4  2  0
  4  5  1  0
  5  6  2  0
  6  7  1  0
  7  8  2  0
  7  9  1  0
  9 10  2  0
 10 11  1  0
 11 12  1  0
 11 13  1  0
 13 14  1  0
 14 15  1  0
 15 16  2  0
 16 17  1  0
 15 18  1  0
 18 19  2  0
 18 20  1  0
 20 21  1  0
 21 22  1  0
 22 23  1  0
 23 24  1  0
 24 25  1  0
 25 26  1  0
 26 27  1  0
 27 28  1  0
 26 29  1  0
 29 30  2  0
 30 31  1  0
 31 32  2  0
 32 33  1  0
 33 34  2  0
 34 35  1  0
  8  3  1  0
 17  9  1  0
 17 13  2  0
 28 23  1  0
 34 29  1  0
  1 36  1  0
  1 37  1  0
  1 38  1  0
  4 39  1  0
  5 40  1  0
  6 41  1  0
  8 42  1  0
 12 43  1  0
 12 44  1  0
 12 45  1  0
 16 46  1  0
 20 47  1  0
 21 48  1  0
 21 49  1  0
 22 50  1  0
 22 51  1  0
 24 52  1  0
 24 53  1  0
 25 54  1  0
 25 55  1  0
 27 56  1  0
 27 57  1  0
 28 58  1  0
 28 59  1  0
 30 60  1  0
 31 61  1  0
 32 62  1  0
 33 63  1  0
M  END
>  <Batch_No>  (136) 
C453-0221

>  <EC50_nM>  (136) 
1300

>  <Set>  (136) 
Drug-like

>  <Molecular_Weight>  (136) 
493.59622

>  <ALogP>  (136) 
4.623

$$$$
MMV011944
     RDKit          3D

 41 43  0  0  0  0  0  0  0  0999 V2000
   -1.4960    0.6592    0.0973 N   0  0  0  0  0  0  0  0  0  0  0  0
   -2.4364   -0.2843   -0.0166 C   0  0  0  0  0  0  0  0  0  0  0  0
   -3.8255    0.0919    0.0175 N   0  0  0  0  0  0  0  0  0  0  0  0
   -4.1551    1.4912    0.1755 C   0  0  0  0  0  0  0  0  0  0  0  0
   -5.6474    1.6678    0.1862 C   0  0  0  0  0  0  0  0  0  0  0  0
   -5.9382    3.0209    0.3391 O   0  0  0  0  0  0  0  0  0  0  0  0
   -2.0369   -1.5899   -0.1634 C   0  0  0  0  0  0  0  0  0  0  0  0
   -0.6829   -1.8362   -0.1829 C   0  0  0  0  0  0  0  0  0  0  0  0
   -0.1909   -3.1333   -0.3281 C   0  0  0  0  0  0  0  0  0  0  0  0
   -1.0979   -4.1570   -0.4509 C   0  0  0  0  0  0  0  0  0  0  0  0
   -2.4449   -3.8879   -0.4288 C   0  0  0  0  0  0  0  0  0  0  0  0
   -2.9446   -2.6108   -0.2859 C   0  0  0  0  0  0  0  0  0  0  0  0
    0.2047   -0.8601   -0.0656 N   0  0  0  0  0  0  0  0  0  0  0  0
   -0.1687    0.4057    0.0767 C   0  0  0  0  0  0  0  0  0  0  0  0
    0.7000    1.5131    0.2089 N   0  0  0  0  0  0  0  0  0  0  0  0
    2.1081    1.4881    0.2151 C   0  0  0  0  0  0  0  0  0  0  0  0
    2.8133    2.6953    0.3569 C   0  0  0  0  0  0  0  0  0  0  0  0
    4.1860    2.7436    0.3712 C   0  0  0  0  0  0  0  0  0  0  0  0
    4.9545    1.6087    0.2471 C   0  0  0  0  0  0  0  0  0  0  0  0
    4.2846    0.4125    0.1067 C   0  0  0  0  0  0  0  0  0  0  0  0
    4.9998   -0.7469   -0.0206 O   0  0  0  0  0  0  0  0  0  0  0  0
    6.3869   -0.8561   -0.0245 C   0  0  0  0  0  0  0  0  0  0  0  0
    2.8897    0.3665    0.0925 C   0  0  0  0  0  0  0  0  0  0  0  0
   -4.6036   -0.5765   -0.0639 H   0  0  0  0  0  0  0  0  0  0  0  0
   -3.7246    1.8849    1.1270 H   0  0  0  0  0  0  0  0  0  0  0  0
   -3.6954    2.0957   -0.6365 H   0  0  0  0  0  0  0  0  0  0  0  0
   -6.1068    1.2287   -0.7035 H   0  0  0  0  0  0  0  0  0  0  0  0
   -6.0734    1.1458    1.0669 H   0  0  0  0  0  0  0  0  0  0  0  0
   -5.3228    3.4295    0.9839 H   0  0  0  0  0  0  0  0  0  0  0  0
    0.8587   -3.3509   -0.3462 H   0  0  0  0  0  0  0  0  0  0  0  0
   -0.7187   -5.1585   -0.5630 H   0  0  0  0  0  0  0  0  0  0  0  0
   -3.1208   -4.7329   -0.5297 H   0  0  0  0  0  0  0  0  0  0  0  0
   -4.0094   -2.4390   -0.2731 H   0  0  0  0  0  0  0  0  0  0  0  0
    0.2574    2.4753    0.3160 H   0  0  0  0  0  0  0  0  0  0  0  0
    2.2839    3.6433    0.4613 H   0  0  0  0  0  0  0  0  0  0  0  0
    4.6815    3.7055    0.4838 H   0  0  0  0  0  0  0  0  0  0  0  0
    6.0137    1.7230    0.2670 H   0  0  0  0  0  0  0  0  0  0  0  0
    6.8769    0.0339   -0.4736 H   0  0  0  0  0  0  0  0  0  0  0  0
    6.7479   -1.7962   -0.5192 H   0  0  0  0  0  0  0  0  0  0  0  0
    6.7389   -0.9194    1.0294 H   0  0  0  0  0  0  0  0  0  0  0  0
    2.4540   -0.5945   -0.0195 H   0  0  0  0  0  0  0  0  0  0  0  0
  1  2  2  0
  2  3  1  0
  3  4  1  0
  4  5  1  0
  5  6  1  0
  2  7  1  0
  7  8  2  0
  8  9  1  0
  9 10  2  0
 10 11  1  0
 11 12  2  0
  8 13  1  0
 13 14  2  0
 14 15  1  0
 15 16  1  0
 16 17  2  0
 17 18  1  0
 18 19  2  0
 19 20  1  0
 20 21  1  0
 21 22  1  0
 20 23  2  0
 14  1  1  0
 12  7  1  0
 23 16  1  0
  3 24  1  0
  4 25  1  0
  4 26  1  0
  5 27  1  0
  5 28  1  0
  6 29  1  0
  9 30  1  0
 10 31  1  0
 11 32  1  0
 12 33  1  0
 15 34  1  0
 17 35  1  0
 18 36  1  0
 19 37  1  0
 22 38  1  0
 22 39  1  0
 22 40  1  0
 23 41  1  0
M  END
>  <Batch_No>  (137) 
STL156039

>  <EC50_nM>  (137) 
854

>  <Set>  (137) 
Drug-like

>  <Molecular_Weight>  (137) 
310.35041

>  <ALogP>  (137) 
2.141

$$$$
MMV665803
     RDKit          3D

 50 51  0  0  0  0  0  0  0  0999 V2000
   -5.7179   -1.7528   -1.2031 C   0  0  0  0  0  0  0  0  0  0  0  0
   -5.3193   -0.4173   -1.7442 C   0  0  0  0  0  0  0  0  0  0  0  0
   -4.6323    0.4004   -0.8103 O   0  0  0  0  0  0  0  0  0  0  0  0
   -3.4344    0.0192   -0.2284 C   0  0  0  0  0  0  0  0  0  0  0  0
   -2.7952   -1.1691   -0.4890 C   0  0  0  0  0  0  0  0  0  0  0  0
   -1.5879   -1.4977    0.1298 C   0  0  0  0  0  0  0  0  0  0  0  0
   -0.8981   -3.0417   -0.2886 Cl  0  0  0  0  0  0  0  0  0  0  0  0
   -0.9735   -0.6506    1.0325 C   0  0  0  0  0  0  0  0  0  0  0  0
   -1.6467    0.5508    1.2781 C   0  0  0  0  0  0  0  0  0  0  0  0
   -2.8353    0.8744    0.6692 C   0  0  0  0  0  0  0  0  0  0  0  0
   -3.4614    2.0875    0.9531 O   0  0  0  0  0  0  0  0  0  0  0  0
   -2.9515    3.0338    1.8439 C   0  0  0  0  0  0  0  0  0  0  0  0
   -3.9370    4.2096    1.8650 C   0  0  0  0  0  0  0  0  0  0  0  0
    0.3084   -0.9894    1.6873 C   0  0  0  0  0  0  0  0  0  0  0  0
    0.2057   -1.8383    2.9186 C   0  0  0  0  0  0  0  0  0  0  0  0
    1.3851   -1.3066    0.7982 N   0  0  0  0  0  0  0  0  0  0  0  0
    2.5006   -0.4443    0.5774 C   0  0  0  0  0  0  0  0  0  0  0  0
    2.5199    0.6461    1.2060 O   0  0  0  0  0  0  0  0  0  0  0  0
    3.5947   -0.7665   -0.3260 C   0  0  0  0  0  0  0  0  0  0  0  0
    3.6678   -1.9300   -1.0591 C   0  0  0  0  0  0  0  0  0  0  0  0
    4.7204   -2.2143   -1.9131 C   0  0  0  0  0  0  0  0  0  0  0  0
    5.7322   -1.2832   -2.0245 C   0  0  0  0  0  0  0  0  0  0  0  0
    5.7114   -0.0991   -1.3134 C   0  0  0  0  0  0  0  0  0  0  0  0
    6.7303    0.8292   -1.4310 O   0  0  0  0  0  0  0  0  0  0  0  0
    6.7774    2.0463   -0.7446 C   0  0  0  0  0  0  0  0  0  0  0  0
    4.6372    0.1275   -0.4793 C   0  0  0  0  0  0  0  0  0  0  0  0
   -5.4289   -1.9458   -0.1637 H   0  0  0  0  0  0  0  0  0  0  0  0
   -5.4322   -2.6049   -1.8744 H   0  0  0  0  0  0  0  0  0  0  0  0
   -6.8425   -1.7810   -1.2126 H   0  0  0  0  0  0  0  0  0  0  0  0
   -6.1509    0.1518   -2.2068 H   0  0  0  0  0  0  0  0  0  0  0  0
   -4.5718   -0.6136   -2.5559 H   0  0  0  0  0  0  0  0  0  0  0  0
   -3.2568   -1.8512   -1.1943 H   0  0  0  0  0  0  0  0  0  0  0  0
   -1.2125    1.2561    1.9782 H   0  0  0  0  0  0  0  0  0  0  0  0
   -1.9357    3.3648    1.6176 H   0  0  0  0  0  0  0  0  0  0  0  0
   -2.9550    2.6428    2.8988 H   0  0  0  0  0  0  0  0  0  0  0  0
   -3.6750    4.7951    2.7799 H   0  0  0  0  0  0  0  0  0  0  0  0
   -3.8176    4.8165    0.9558 H   0  0  0  0  0  0  0  0  0  0  0  0
   -4.9517    3.8190    2.0170 H   0  0  0  0  0  0  0  0  0  0  0  0
    0.6343    0.0152    2.1236 H   0  0  0  0  0  0  0  0  0  0  0  0
   -0.6247   -1.4599    3.5125 H   0  0  0  0  0  0  0  0  0  0  0  0
    1.1308   -1.6851    3.5167 H   0  0  0  0  0  0  0  0  0  0  0  0
    0.2054   -2.9244    2.7117 H   0  0  0  0  0  0  0  0  0  0  0  0
    1.3962   -2.2054    0.2679 H   0  0  0  0  0  0  0  0  0  0  0  0
    2.8938   -2.6735   -0.9923 H   0  0  0  0  0  0  0  0  0  0  0  0
    4.7469   -3.1456   -2.4791 H   0  0  0  0  0  0  0  0  0  0  0  0
    6.5618   -1.4936   -2.6896 H   0  0  0  0  0  0  0  0  0  0  0  0
    5.7869    2.5375   -0.7975 H   0  0  0  0  0  0  0  0  0  0  0  0
    7.5866    2.6574   -1.2058 H   0  0  0  0  0  0  0  0  0  0  0  0
    6.9857    1.8338    0.3298 H   0  0  0  0  0  0  0  0  0  0  0  0
    4.6265    1.0701    0.0831 H   0  0  0  0  0  0  0  0  0  0  0  0
  1  2  1  0
  2  3  1  0
  3  4  1  0
  4  5  2  0
  5  6  1  0
  6  7  1  0
  6  8  2  0
  8  9  1  0
  9 10  2  0
 10 11  1  0
 11 12  1  0
 12 13  1  0
  8 14  1  0
 14 15  1  0
 14 16  1  0
 16 17  1  0
 17 18  2  0
 17 19  1  0
 19 20  2  0
 20 21  1  0
 21 22  2  0
 22 23  1  0
 23 24  1  0
 24 25  1  0
 23 26  2  0
 10  4  1  0
 26 19  1  0
  1 27  1  0
  1 28  1  0
  1 29  1  0
  2 30  1  0
  2 31  1  0
  5 32  1  0
  9 33  1  0
 12 34  1  0
 12 35  1  0
 13 36  1  0
 13 37  1  0
 13 38  1  0
 14 39  1  0
 15 40  1  0
 15 41  1  0
 15 42  1  0
 16 43  1  0
 20 44  1  0
 21 45  1  0
 22 46  1  0
 25 47  1  0
 25 48  1  0
 25 49  1  0
 26 50  1  0
M  END
>  <Batch_No>  (138) 
AN-153/41789053

>  <EC50_nM>  (138) 
728

>  <Set>  (138) 
Drug-like

>  <Molecular_Weight>  (138) 
377.86185

>  <ALogP>  (138) 
4.311

$$$$
MMV665857
     RDKit          3D

 48 49  0  0  0  0  0  0  0  0999 V2000
    5.5022   -2.2571    1.4751 C   0  0  0  0  0  0  0  0  0  0  0  0
    4.5170   -2.6250    2.5541 C   0  0  0  0  0  0  0  0  0  0  0  0
    3.2146   -2.7318    2.0338 O   0  0  0  0  0  0  0  0  0  0  0  0
    2.5320   -1.6969    1.4107 C   0  0  0  0  0  0  0  0  0  0  0  0
    1.7447   -0.8439    2.1611 C   0  0  0  0  0  0  0  0  0  0  0  0
    1.6565   -1.1325    3.9058 Cl  0  0  0  0  0  0  0  0  0  0  0  0
    1.0364    0.2053    1.6207 C   0  0  0  0  0  0  0  0  0  0  0  0
    1.1002    0.4412    0.2437 C   0  0  0  0  0  0  0  0  0  0  0  0
    0.3284    1.5733   -0.2979 C   0  0  0  0  0  0  0  0  0  0  0  0
   -1.0133    1.2231   -0.6954 N   0  0  0  0  0  0  0  0  0  0  0  0
   -1.6760    2.4041   -1.2087 C   0  0  0  0  0  0  0  0  0  0  0  0
   -0.8590    2.8763   -2.3971 C   0  0  0  0  0  0  0  0  0  0  0  0
   -3.1048    2.1053   -1.6084 C   0  0  0  0  0  0  0  0  0  0  0  0
   -3.1480    1.1212   -2.6122 O   0  0  0  0  0  0  0  0  0  0  0  0
   -3.8788    1.5800   -0.4571 C   0  0  0  0  0  0  0  0  0  0  0  0
   -5.1094    0.9933   -0.7667 C   0  0  0  0  0  0  0  0  0  0  0  0
   -5.8658    0.4866    0.2912 C   0  0  0  0  0  0  0  0  0  0  0  0
   -5.4441    0.5473    1.5971 C   0  0  0  0  0  0  0  0  0  0  0  0
   -4.2270    1.1318    1.8670 C   0  0  0  0  0  0  0  0  0  0  0  0
   -3.4492    1.6447    0.8485 C   0  0  0  0  0  0  0  0  0  0  0  0
    1.8780   -0.4022   -0.4945 C   0  0  0  0  0  0  0  0  0  0  0  0
    2.5873   -1.4548    0.0552 C   0  0  0  0  0  0  0  0  0  0  0  0
    3.3795   -2.3046   -0.7375 O   0  0  0  0  0  0  0  0  0  0  0  0
    3.4888   -2.1239   -2.1323 C   0  0  0  0  0  0  0  0  0  0  0  0
    5.2258   -1.2952    1.0319 H   0  0  0  0  0  0  0  0  0  0  0  0
    6.4963   -2.1216    1.9521 H   0  0  0  0  0  0  0  0  0  0  0  0
    5.5371   -3.1039    0.7657 H   0  0  0  0  0  0  0  0  0  0  0  0
    4.7842   -3.5867    3.0244 H   0  0  0  0  0  0  0  0  0  0  0  0
    4.5695   -1.8578    3.3779 H   0  0  0  0  0  0  0  0  0  0  0  0
    0.4563    0.8071    2.2880 H   0  0  0  0  0  0  0  0  0  0  0  0
    0.3063    2.4028    0.4315 H   0  0  0  0  0  0  0  0  0  0  0  0
    0.8873    1.9708   -1.1777 H   0  0  0  0  0  0  0  0  0  0  0  0
   -1.0640    0.4897   -1.4042 H   0  0  0  0  0  0  0  0  0  0  0  0
   -1.6782    3.1673   -0.4316 H   0  0  0  0  0  0  0  0  0  0  0  0
   -0.2982    2.0386   -2.8696 H   0  0  0  0  0  0  0  0  0  0  0  0
   -1.5001    3.3174   -3.1833 H   0  0  0  0  0  0  0  0  0  0  0  0
   -0.1100    3.5991   -2.0273 H   0  0  0  0  0  0  0  0  0  0  0  0
   -3.6019    3.0116   -1.9876 H   0  0  0  0  0  0  0  0  0  0  0  0
   -3.0097    0.2530   -2.1550 H   0  0  0  0  0  0  0  0  0  0  0  0
   -5.4681    0.9318   -1.7918 H   0  0  0  0  0  0  0  0  0  0  0  0
   -6.8352    0.0163    0.1163 H   0  0  0  0  0  0  0  0  0  0  0  0
   -6.0231    0.1571    2.4251 H   0  0  0  0  0  0  0  0  0  0  0  0
   -3.9017    1.1734    2.9172 H   0  0  0  0  0  0  0  0  0  0  0  0
   -2.5044    2.0953    1.0811 H   0  0  0  0  0  0  0  0  0  0  0  0
    1.9355   -0.2306   -1.5586 H   0  0  0  0  0  0  0  0  0  0  0  0
    2.6178   -2.6040   -2.6253 H   0  0  0  0  0  0  0  0  0  0  0  0
    3.5921   -1.0582   -2.4158 H   0  0  0  0  0  0  0  0  0  0  0  0
    4.3964   -2.7053   -2.4399 H   0  0  0  0  0  0  0  0  0  0  0  0
  1  2  1  0
  2  3  1  0
  3  4  1  0
  4  5  2  0
  5  6  1  0
  5  7  1  0
  7  8  2  0
  8  9  1  0
  9 10  1  0
 10 11  1  0
 11 12  1  0
 11 13  1  0
 13 14  1  0
 13 15  1  0
 15 16  2  0
 16 17  1  0
 17 18  2  0
 18 19  1  0
 19 20  2  0
  8 21  1  0
 21 22  2  0
 22 23  1  0
 23 24  1  0
 22  4  1  0
 20 15  1  0
  1 25  1  0
  1 26  1  0
  1 27  1  0
  2 28  1  0
  2 29  1  0
  7 30  1  0
  9 31  1  0
  9 32  1  0
 10 33  1  0
 11 34  1  0
 12 35  1  0
 12 36  1  0
 12 37  1  0
 13 38  1  0
 14 39  1  0
 16 40  1  0
 17 41  1  0
 18 42  1  0
 19 43  1  0
 20 44  1  0
 21 45  1  0
 24 46  1  0
 24 47  1  0
 24 48  1  0
M  END
>  <Batch_No>  (139) 
OSSK_617780

>  <EC50_nM>  (139) 
ND

>  <Set>  (139) 
Drug-like

>  <Molecular_Weight>  (139) 
349.85175

>  <ALogP>  (139) 
3.798

$$$$
MMV666071
     RDKit          3D

 58 62  0  0  0  0  0  0  0  0999 V2000
   10.0378    1.0635    0.0662 C   0  0  0  0  0  0  0  0  0  0  0  0
    8.5501    1.0597    0.0068 C   0  0  0  0  0  0  0  0  0  0  0  0
    7.6880    0.4923    0.7903 O   0  0  0  0  0  0  0  0  0  0  0  0
    6.4484    0.7082    0.4237 C   0  0  0  0  0  0  0  0  0  0  0  0
    5.2360    0.2180    1.0802 C   0  0  0  0  0  0  0  0  0  0  0  0
    4.7726   -1.0522    0.6114 N   0  0  0  0  0  0  0  0  0  0  0  0
    4.4378   -1.1282   -0.7714 C   0  0  0  0  0  0  0  0  0  0  0  0
    3.0109   -0.8180   -1.0975 C   0  0  0  0  0  0  0  0  0  0  0  0
    2.0300   -1.4569   -0.1471 C   0  0  0  0  0  0  0  0  0  0  0  0
    2.4065   -1.0332    1.2573 C   0  0  0  0  0  0  0  0  0  0  0  0
    3.7934   -1.6038    1.5035 C   0  0  0  0  0  0  0  0  0  0  0  0
    0.6738   -0.9228   -0.4740 C   0  0  0  0  0  0  0  0  0  0  0  0
    0.6056   -0.1024   -1.4089 O   0  0  0  0  0  0  0  0  0  0  0  0
   -0.4536   -1.3520    0.2650 N   0  0  0  0  0  0  0  0  0  0  0  0
   -1.7797   -0.9411    0.0743 C   0  0  0  0  0  0  0  0  0  0  0  0
   -2.2206   -0.0457   -0.8674 C   0  0  0  0  0  0  0  0  0  0  0  0
   -3.5624    0.3160   -0.9977 C   0  0  0  0  0  0  0  0  0  0  0  0
   -4.5138   -0.2294   -0.1621 C   0  0  0  0  0  0  0  0  0  0  0  0
   -4.0671   -1.1288    0.7828 C   0  0  0  0  0  0  0  0  0  0  0  0
   -2.7523   -1.4788    0.9055 C   0  0  0  0  0  0  0  0  0  0  0  0
   -5.9154    0.1446   -0.2940 C   0  0  0  0  0  0  0  0  0  0  0  0
   -6.9516   -0.3323    0.4807 C   0  0  0  0  0  0  0  0  0  0  0  0
   -8.0840    0.2987   -0.0065 C   0  0  0  0  0  0  0  0  0  0  0  0
   -9.4229    0.2643    0.3210 C   0  0  0  0  0  0  0  0  0  0  0  0
  -10.3624    1.0241   -0.3565 C   0  0  0  0  0  0  0  0  0  0  0  0
   -9.9768    1.8455   -1.3902 C   0  0  0  0  0  0  0  0  0  0  0  0
   -8.6392    1.8867   -1.7252 C   0  0  0  0  0  0  0  0  0  0  0  0
   -7.6903    1.1274   -1.0502 C   0  0  0  0  0  0  0  0  0  0  0  0
   -6.3608    1.0192   -1.2106 N   0  0  0  0  0  0  0  0  0  0  0  0
    6.5287    1.5004   -0.7192 C   0  0  0  0  0  0  0  0  0  0  0  0
    7.8646    1.7381   -1.0049 C   0  0  0  0  0  0  0  0  0  0  0  0
   10.3830    1.9514    0.6574 H   0  0  0  0  0  0  0  0  0  0  0  0
   10.4640    0.1725    0.5562 H   0  0  0  0  0  0  0  0  0  0  0  0
   10.4796    1.1974   -0.9573 H   0  0  0  0  0  0  0  0  0  0  0  0
    4.4457    0.9981    1.0353 H   0  0  0  0  0  0  0  0  0  0  0  0
    5.4633    0.0913    2.1628 H   0  0  0  0  0  0  0  0  0  0  0  0
    4.6888   -2.1395   -1.1512 H   0  0  0  0  0  0  0  0  0  0  0  0
    5.0796   -0.4171   -1.3320 H   0  0  0  0  0  0  0  0  0  0  0  0
    2.7894    0.2630   -1.1357 H   0  0  0  0  0  0  0  0  0  0  0  0
    2.7953   -1.2282   -2.1085 H   0  0  0  0  0  0  0  0  0  0  0  0
    2.0267   -2.5503   -0.1842 H   0  0  0  0  0  0  0  0  0  0  0  0
    1.7285   -1.4454    2.0177 H   0  0  0  0  0  0  0  0  0  0  0  0
    2.4848    0.0651    1.2594 H   0  0  0  0  0  0  0  0  0  0  0  0
    3.7443   -2.7080    1.4610 H   0  0  0  0  0  0  0  0  0  0  0  0
    4.0911   -1.3448    2.5414 H   0  0  0  0  0  0  0  0  0  0  0  0
   -0.2502   -2.0512    1.0306 H   0  0  0  0  0  0  0  0  0  0  0  0
   -1.5464    0.4236   -1.5553 H   0  0  0  0  0  0  0  0  0  0  0  0
   -3.8647    1.0313   -1.7606 H   0  0  0  0  0  0  0  0  0  0  0  0
   -4.7874   -1.5624    1.4393 H   0  0  0  0  0  0  0  0  0  0  0  0
   -2.4926   -2.2025    1.6873 H   0  0  0  0  0  0  0  0  0  0  0  0
   -6.9418   -1.0324    1.2889 H   0  0  0  0  0  0  0  0  0  0  0  0
   -9.7852   -0.3563    1.1172 H   0  0  0  0  0  0  0  0  0  0  0  0
  -11.4196    1.0044   -0.1066 H   0  0  0  0  0  0  0  0  0  0  0  0
  -10.7037    2.4552   -1.9396 H   0  0  0  0  0  0  0  0  0  0  0  0
   -8.3654    2.5457   -2.5468 H   0  0  0  0  0  0  0  0  0  0  0  0
   -5.8365    1.5521   -1.9400 H   0  0  0  0  0  0  0  0  0  0  0  0
    5.7338    1.8912   -1.3193 H   0  0  0  0  0  0  0  0  0  0  0  0
    8.2645    2.3148   -1.8220 H   0  0  0  0  0  0  0  0  0  0  0  0
  1  2  1  0
  2  3  1  0
  3  4  1  0
  4  5  1  0
  5  6  1  0
  6  7  1  0
  7  8  1  0
  8  9  1  0
  9 10  1  0
 10 11  1  0
  9 12  1  0
 12 13  2  0
 12 14  1  0
 14 15  1  0
 15 16  2  0
 16 17  1  0
 17 18  2  0
 18 19  1  0
 19 20  2  0
 18 21  1  0
 21 22  2  0
 22 23  1  0
 23 24  2  0
 24 25  1  0
 25 26  2  0
 26 27  1  0
 27 28  2  0
 28 29  1  0
  4 30  2  0
 30 31  1  0
 31  2  2  0
 11  6  1  0
 20 15  1  0
 29 21  1  0
 28 23  1  0
  1 32  1  0
  1 33  1  0
  1 34  1  0
  5 35  1  0
  5 36  1  0
  7 37  1  0
  7 38  1  0
  8 39  1  0
  8 40  1  0
  9 41  1  0
 10 42  1  0
 10 43  1  0
 11 44  1  0
 11 45  1  0
 14 46  1  0
 16 47  1  0
 17 48  1  0
 19 49  1  0
 20 50  1  0
 22 51  1  0
 24 52  1  0
 25 53  1  0
 26 54  1  0
 27 55  1  0
 29 56  1  0
 30 57  1  0
 31 58  1  0
M  END
>  <Batch_No>  (140) 
59603835

>  <EC50_nM>  (140) 
ND

>  <Set>  (140) 
Drug-like

>  <Molecular_Weight>  (140) 
413.51148

>  <ALogP>  (140) 
4.59

$$$$
MMV019780
     RDKit          3D

 78 82  0  0  0  0  0  0  0  0999 V2000
   12.0157   -2.7898    1.1036 C   0  0  0  0  0  0  0  0  0  0  0  0
   10.7644   -2.0138    0.9376 C   0  0  0  0  0  0  0  0  0  0  0  0
   10.7157   -0.6380    0.8847 C   0  0  0  0  0  0  0  0  0  0  0  0
    9.5913    0.1056    0.7333 C   0  0  0  0  0  0  0  0  0  0  0  0
    9.7322    1.5864    0.6979 C   0  0  0  0  0  0  0  0  0  0  0  0
    8.3528   -0.5300    0.6168 C   0  0  0  0  0  0  0  0  0  0  0  0
    7.1547   -0.0127    0.4651 N   0  0  0  0  0  0  0  0  0  0  0  0
    6.1216   -0.5427    0.3680 C   0  0  0  0  0  0  0  0  0  0  0  0
    6.6775   -2.3539    0.4925 S   0  0  0  0  0  0  0  0  0  0  0  0
    8.3724   -1.9003    0.6661 C   0  0  0  0  0  0  0  0  0  0  0  0
    9.5238   -2.6555    0.8208 C   0  0  0  0  0  0  0  0  0  0  0  0
    4.7130   -0.2968    0.2015 N   0  0  0  0  0  0  0  0  0  0  0  0
    3.7325   -1.3378    0.1309 C   0  0  0  0  0  0  0  0  0  0  0  0
    2.4156   -0.6856   -0.2049 C   0  0  0  0  0  0  0  0  0  0  0  0
    2.5176    0.2792   -1.3689 C   0  0  0  0  0  0  0  0  0  0  0  0
    3.6510    1.2501   -1.2466 C   0  0  0  0  0  0  0  0  0  0  0  0
    4.3162    1.0843    0.1042 C   0  0  0  0  0  0  0  0  0  0  0  0
    1.2384    1.0630   -1.3750 C   0  0  0  0  0  0  0  0  0  0  0  0
    1.2389    2.3146   -1.2515 O   0  0  0  0  0  0  0  0  0  0  0  0
    0.0170    0.3151   -1.5287 N   0  0  0  0  0  0  0  0  0  0  0  0
   -1.2647    0.9623   -1.5499 C   0  0  0  0  0  0  0  0  0  0  0  0
   -1.5447    1.7207   -0.2749 C   0  0  0  0  0  0  0  0  0  0  0  0
   -2.9259    2.3772   -0.3801 C   0  0  0  0  0  0  0  0  0  0  0  0
   -3.9489    1.3710   -0.5719 N   0  0  0  0  0  0  0  0  0  0  0  0
   -4.1082    0.5607    0.5958 C   0  0  0  0  0  0  0  0  0  0  0  0
   -5.4933    0.6486    1.2189 C   0  0  0  0  0  0  0  0  0  0  0  0
   -6.5320    0.2410    0.1968 C   0  0  0  0  0  0  0  0  0  0  0  0
   -6.3186    1.0189   -1.0490 C   0  0  0  0  0  0  0  0  0  0  0  0
   -5.1856    2.0341   -0.8627 C   0  0  0  0  0  0  0  0  0  0  0  0
   -7.8246    0.3681    0.8084 N   0  0  0  0  0  0  0  0  0  0  0  0
   -8.9231    0.0482   -0.0573 C   0  0  0  0  0  0  0  0  0  0  0  0
   -9.0885   -1.4349   -0.3265 C   0  0  0  0  0  0  0  0  0  0  0  0
   -9.5592   -2.0559    0.9756 C   0  0  0  0  0  0  0  0  0  0  0  0
   -9.2014   -1.1850    2.1590 C   0  0  0  0  0  0  0  0  0  0  0  0
   -7.8774   -0.4855    1.9652 C   0  0  0  0  0  0  0  0  0  0  0  0
   12.1487   -3.1385    2.1631 H   0  0  0  0  0  0  0  0  0  0  0  0
   12.8590   -2.1167    0.8951 H   0  0  0  0  0  0  0  0  0  0  0  0
   12.0176   -3.7111    0.4845 H   0  0  0  0  0  0  0  0  0  0  0  0
   11.6922   -0.1352    0.9764 H   0  0  0  0  0  0  0  0  0  0  0  0
    9.7989    1.9171   -0.3616 H   0  0  0  0  0  0  0  0  0  0  0  0
    8.8248    2.0357    1.1814 H   0  0  0  0  0  0  0  0  0  0  0  0
   10.5916    1.9105    1.2979 H   0  0  0  0  0  0  0  0  0  0  0  0
    9.4467   -3.7141    0.8483 H   0  0  0  0  0  0  0  0  0  0  0  0
    3.6079   -1.7858    1.1578 H   0  0  0  0  0  0  0  0  0  0  0  0
    3.9854   -2.1416   -0.5816 H   0  0  0  0  0  0  0  0  0  0  0  0
    1.7192   -1.5017   -0.5336 H   0  0  0  0  0  0  0  0  0  0  0  0
    1.9649   -0.2016    0.6743 H   0  0  0  0  0  0  0  0  0  0  0  0
    2.5903   -0.3022   -2.3129 H   0  0  0  0  0  0  0  0  0  0  0  0
    3.3120    2.3174   -1.3125 H   0  0  0  0  0  0  0  0  0  0  0  0
    4.4133    1.0904   -2.0397 H   0  0  0  0  0  0  0  0  0  0  0  0
    5.1339    1.7797    0.2870 H   0  0  0  0  0  0  0  0  0  0  0  0
    3.5296    1.2346    0.8947 H   0  0  0  0  0  0  0  0  0  0  0  0
    0.0898   -0.7399   -1.6267 H   0  0  0  0  0  0  0  0  0  0  0  0
   -2.0450    0.2080   -1.7618 H   0  0  0  0  0  0  0  0  0  0  0  0
   -1.3190    1.7221   -2.3774 H   0  0  0  0  0  0  0  0  0  0  0  0
   -0.7893    2.4937   -0.1145 H   0  0  0  0  0  0  0  0  0  0  0  0
   -1.5116    1.0010    0.5667 H   0  0  0  0  0  0  0  0  0  0  0  0
   -2.8929    3.0466   -1.2696 H   0  0  0  0  0  0  0  0  0  0  0  0
   -3.1413    2.9872    0.5117 H   0  0  0  0  0  0  0  0  0  0  0  0
   -3.9978   -0.5183    0.2835 H   0  0  0  0  0  0  0  0  0  0  0  0
   -3.3902    0.8263    1.3998 H   0  0  0  0  0  0  0  0  0  0  0  0
   -5.4580   -0.0227    2.0992 H   0  0  0  0  0  0  0  0  0  0  0  0
   -5.6901    1.6589    1.6333 H   0  0  0  0  0  0  0  0  0  0  0  0
   -6.3131   -0.8501   -0.0046 H   0  0  0  0  0  0  0  0  0  0  0  0
   -7.1666    1.5987   -1.4229 H   0  0  0  0  0  0  0  0  0  0  0  0
   -5.9424    0.3489   -1.8779 H   0  0  0  0  0  0  0  0  0  0  0  0
   -5.0840    2.5281   -1.8738 H   0  0  0  0  0  0  0  0  0  0  0  0
   -5.4696    2.8333   -0.1674 H   0  0  0  0  0  0  0  0  0  0  0  0
   -8.9481    0.6596   -0.9828 H   0  0  0  0  0  0  0  0  0  0  0  0
   -9.8550    0.3589    0.4940 H   0  0  0  0  0  0  0  0  0  0  0  0
   -9.8505   -1.5194   -1.1326 H   0  0  0  0  0  0  0  0  0  0  0  0
   -8.1843   -1.9305   -0.6843 H   0  0  0  0  0  0  0  0  0  0  0  0
  -10.6659   -2.0989    0.9286 H   0  0  0  0  0  0  0  0  0  0  0  0
   -9.2077   -3.1061    1.0854 H   0  0  0  0  0  0  0  0  0  0  0  0
  -10.0228   -0.4905    2.3594 H   0  0  0  0  0  0  0  0  0  0  0  0
   -9.0910   -1.8503    3.0371 H   0  0  0  0  0  0  0  0  0  0  0  0
   -7.0567   -1.2554    1.9643 H   0  0  0  0  0  0  0  0  0  0  0  0
   -7.6995    0.1428    2.8609 H   0  0  0  0  0  0  0  0  0  0  0  0
  1  2  1  0
  2  3  2  0
  3  4  1  0
  4  5  1  0
  4  6  2  0
  6  7  1  0
  7  8  2  0
  8  9  1  0
  9 10  1  0
 10 11  2  0
  8 12  1  0
 12 13  1  0
 13 14  1  0
 14 15  1  0
 15 16  1  0
 16 17  1  0
 15 18  1  0
 18 19  2  0
 18 20  1  0
 20 21  1  0
 21 22  1  0
 22 23  1  0
 23 24  1  0
 24 25  1  0
 25 26  1  0
 26 27  1  0
 27 28  1  0
 28 29  1  0
 27 30  1  0
 30 31  1  0
 31 32  1  0
 32 33  1  0
 33 34  1  0
 34 35  1  0
 11  2  1  0
 10  6  1  0
 17 12  1  0
 29 24  1  0
 35 30  1  0
  1 36  1  0
  1 37  1  0
  1 38  1  0
  3 39  1  0
  5 40  1  0
  5 41  1  0
  5 42  1  0
 11 43  1  0
 13 44  1  0
 13 45  1  0
 14 46  1  0
 14 47  1  0
 15 48  1  0
 16 49  1  0
 16 50  1  0
 17 51  1  0
 17 52  1  0
 20 53  1  0
 21 54  1  0
 21 55  1  0
 22 56  1  0
 22 57  1  0
 23 58  1  0
 23 59  1  0
 25 60  1  0
 25 61  1  0
 26 62  1  0
 26 63  1  0
 27 64  1  0
 28 65  1  0
 28 66  1  0
 29 67  1  0
 29 68  1  0
 31 69  1  0
 31 70  1  0
 32 71  1  0
 32 72  1  0
 33 73  1  0
 33 74  1  0
 34 75  1  0
 34 76  1  0
 35 77  1  0
 35 78  1  0
M  END
>  <Batch_No>  (141) 
C782-1308

>  <EC50_nM>  (141) 
697

>  <Set>  (141) 
Drug-like

>  <Molecular_Weight>  (141) 
497.73891

>  <ALogP>  (141) 
3.879

$$$$
MMV666093
     RDKit          3D

 58 61  0  0  0  0  0  0  0  0999 V2000
   -1.6985   -3.4270    0.7365 C   0  0  0  0  0  0  0  0  0  0  0  0
   -0.9338   -2.2420    0.0909 C   0  0  0  0  0  0  0  0  0  0  0  0
   -0.8828   -1.1854    1.1444 C   0  0  0  0  0  0  0  0  0  0  0  0
   -0.2363    0.1030    0.8293 C   0  0  0  0  0  0  0  0  0  0  0  0
    1.1457   -0.1278    0.4766 N   0  0  0  0  0  0  0  0  0  0  0  0
    1.4473   -0.5753   -0.8222 C   0  0  0  0  0  0  0  0  0  0  0  0
    2.6392   -1.5356   -0.7317 C   0  0  0  0  0  0  0  0  0  0  0  0
    3.6904   -0.7278   -0.0931 N   0  0  0  0  0  0  0  0  0  0  0  0
    3.4064   -0.0049    1.1232 C   0  0  0  0  0  0  0  0  0  0  0  0
    2.0932    0.7867    0.9887 C   0  0  0  0  0  0  0  0  0  0  0  0
    4.9656   -0.6912   -0.7187 C   0  0  0  0  0  0  0  0  0  0  0  0
    5.1616   -1.3322   -1.7804 O   0  0  0  0  0  0  0  0  0  0  0  0
    6.0303    0.0856   -0.1251 C   0  0  0  0  0  0  0  0  0  0  0  0
    6.5493   -0.1842    1.0502 O   0  0  0  0  0  0  0  0  0  0  0  0
    7.4889    0.6707    1.3411 C   0  0  0  0  0  0  0  0  0  0  0  0
    7.5957    1.5635    0.2871 C   0  0  0  0  0  0  0  0  0  0  0  0
    6.6516    1.1855   -0.6623 C   0  0  0  0  0  0  0  0  0  0  0  0
   -0.8810    0.9953   -0.1309 C   0  0  0  0  0  0  0  0  0  0  0  0
   -0.1591    2.0249   -0.7028 N   0  0  0  0  0  0  0  0  0  0  0  0
   -0.9137    2.6889   -1.5046 N   0  0  0  0  0  0  0  0  0  0  0  0
   -2.1042    2.1722   -1.5118 N   0  0  0  0  0  0  0  0  0  0  0  0
   -2.0910    1.1192   -0.6593 N   0  0  0  0  0  0  0  0  0  0  0  0
   -3.2702    0.3534   -0.4337 C   0  0  0  0  0  0  0  0  0  0  0  0
   -3.9801    0.2022   -1.8004 C   0  0  0  0  0  0  0  0  0  0  0  0
   -5.4194   -0.0941   -1.5438 C   0  0  0  0  0  0  0  0  0  0  0  0
   -6.0973    1.2573   -1.2758 C   0  0  0  0  0  0  0  0  0  0  0  0
   -5.1309    2.0335   -0.3954 C   0  0  0  0  0  0  0  0  0  0  0  0
   -4.2767    1.1285    0.4338 C   0  0  0  0  0  0  0  0  0  0  0  0
   -1.7462   -4.2858    0.0359 H   0  0  0  0  0  0  0  0  0  0  0  0
   -1.0797   -3.7464    1.5988 H   0  0  0  0  0  0  0  0  0  0  0  0
   -2.6806   -3.1241    1.1088 H   0  0  0  0  0  0  0  0  0  0  0  0
    0.0750   -2.7141   -0.0894 H   0  0  0  0  0  0  0  0  0  0  0  0
   -1.4170   -1.9660   -0.8410 H   0  0  0  0  0  0  0  0  0  0  0  0
   -1.8408   -1.0924    1.7436 H   0  0  0  0  0  0  0  0  0  0  0  0
   -0.2389   -1.6983    1.9745 H   0  0  0  0  0  0  0  0  0  0  0  0
   -0.1633    0.6555    1.8252 H   0  0  0  0  0  0  0  0  0  0  0  0
    0.6383   -0.9430   -1.4550 H   0  0  0  0  0  0  0  0  0  0  0  0
    1.9247    0.2783   -1.4380 H   0  0  0  0  0  0  0  0  0  0  0  0
    2.4250   -2.4196   -0.1419 H   0  0  0  0  0  0  0  0  0  0  0  0
    2.9130   -1.7806   -1.7605 H   0  0  0  0  0  0  0  0  0  0  0  0
    4.2456    0.6281    1.3988 H   0  0  0  0  0  0  0  0  0  0  0  0
    3.2889   -0.7972    1.9115 H   0  0  0  0  0  0  0  0  0  0  0  0
    2.2748    1.5914    0.2622 H   0  0  0  0  0  0  0  0  0  0  0  0
    1.8574    1.1541    2.0124 H   0  0  0  0  0  0  0  0  0  0  0  0
    8.1170    0.7277    2.2375 H   0  0  0  0  0  0  0  0  0  0  0  0
    8.2869    2.4118    0.2014 H   0  0  0  0  0  0  0  0  0  0  0  0
    6.4859    1.6838   -1.6023 H   0  0  0  0  0  0  0  0  0  0  0  0
   -3.2076   -0.6199    0.0025 H   0  0  0  0  0  0  0  0  0  0  0  0
   -3.8855    1.1942   -2.2812 H   0  0  0  0  0  0  0  0  0  0  0  0
   -3.4792   -0.5691   -2.4284 H   0  0  0  0  0  0  0  0  0  0  0  0
   -5.8911   -0.6014   -2.4057 H   0  0  0  0  0  0  0  0  0  0  0  0
   -5.5124   -0.6939   -0.6160 H   0  0  0  0  0  0  0  0  0  0  0  0
   -7.0761    1.1066   -0.7731 H   0  0  0  0  0  0  0  0  0  0  0  0
   -6.2554    1.8162   -2.2232 H   0  0  0  0  0  0  0  0  0  0  0  0
   -5.6943    2.7030    0.2815 H   0  0  0  0  0  0  0  0  0  0  0  0
   -4.4730    2.6703   -1.0233 H   0  0  0  0  0  0  0  0  0  0  0  0
   -3.7462    1.7598    1.1705 H   0  0  0  0  0  0  0  0  0  0  0  0
   -4.9350    0.4278    0.9852 H   0  0  0  0  0  0  0  0  0  0  0  0
  1  2  1  0
  2  3  1  0
  3  4  1  0
  4  5  1  0
  5  6  1  0
  6  7  1  0
  7  8  1  0
  8  9  1  0
  9 10  1  0
  8 11  1  0
 11 12  2  0
 11 13  1  0
 13 14  1  0
 14 15  1  0
 15 16  2  0
 16 17  1  0
  4 18  1  0
 18 19  2  0
 19 20  1  0
 20 21  2  0
 21 22  1  0
 22 23  1  0
 23 24  1  0
 24 25  1  0
 25 26  1  0
 26 27  1  0
 27 28  1  0
 10  5  1  0
 17 13  2  0
 22 18  1  0
 28 23  1  0
  1 29  1  0
  1 30  1  0
  1 31  1  0
  2 32  1  0
  2 33  1  0
  3 34  1  0
  3 35  1  0
  4 36  1  0
  6 37  1  0
  6 38  1  0
  7 39  1  0
  7 40  1  0
  9 41  1  0
  9 42  1  0
 10 43  1  0
 10 44  1  0
 15 45  1  0
 16 46  1  0
 17 47  1  0
 23 48  1  0
 24 49  1  0
 24 50  1  0
 25 51  1  0
 25 52  1  0
 26 53  1  0
 26 54  1  0
 27 55  1  0
 27 56  1  0
 28 57  1  0
 28 58  1  0
M  END
>  <Batch_No>  (142) 
ASN 05550739

>  <EC50_nM>  (142) 
ND

>  <Set>  (142) 
Drug-like

>  <Molecular_Weight>  (142) 
386.4912

>  <ALogP>  (142) 
3.005

$$$$
MMV665953
     RDKit          3D

 28 29  0  0  0  0  0  0  0  0999 V2000
    5.9262    1.3038    0.9634 F   0  0  0  0  0  0  0  0  0  0  0  0
    4.7696    0.7181    0.5160 C   0  0  0  0  0  0  0  0  0  0  0  0
    4.2298    1.1798   -0.6673 C   0  0  0  0  0  0  0  0  0  0  0  0
    3.0553    0.5908   -1.1292 C   0  0  0  0  0  0  0  0  0  0  0  0
    2.4687   -0.4341   -0.3912 C   0  0  0  0  0  0  0  0  0  0  0  0
    1.2531   -1.0318   -0.8852 N   0  0  0  0  0  0  0  0  0  0  0  0
    0.0459   -0.4076   -0.4326 C   0  0  0  0  0  0  0  0  0  0  0  0
    0.1825    0.5761    0.3330 O   0  0  0  0  0  0  0  0  0  0  0  0
   -1.2188   -0.9051   -0.8502 N   0  0  0  0  0  0  0  0  0  0  0  0
   -2.4428   -0.3146   -0.4241 C   0  0  0  0  0  0  0  0  0  0  0  0
   -3.0772    0.6979   -1.0930 C   0  0  0  0  0  0  0  0  0  0  0  0
   -4.2554    1.1748   -0.5676 C   0  0  0  0  0  0  0  0  0  0  0  0
   -4.8276    0.6890    0.5910 C   0  0  0  0  0  0  0  0  0  0  0  0
   -6.3302    1.3178    1.2350 Cl  0  0  0  0  0  0  0  0  0  0  0  0
   -4.1796   -0.3430    1.2714 C   0  0  0  0  0  0  0  0  0  0  0  0
   -4.8093   -1.0332    2.7422 Cl  0  0  0  0  0  0  0  0  0  0  0  0
   -2.9905   -0.8297    0.7480 C   0  0  0  0  0  0  0  0  0  0  0  0
    3.0254   -0.8797    0.7886 C   0  0  0  0  0  0  0  0  0  0  0  0
    4.1971   -0.2983    1.2577 C   0  0  0  0  0  0  0  0  0  0  0  0
    4.8968   -0.8743    2.7617 Cl  0  0  0  0  0  0  0  0  0  0  0  0
    4.6888    1.9842   -1.2481 H   0  0  0  0  0  0  0  0  0  0  0  0
    2.6357    0.9472   -2.0458 H   0  0  0  0  0  0  0  0  0  0  0  0
    1.2565   -1.8549   -1.5228 H   0  0  0  0  0  0  0  0  0  0  0  0
   -1.2066   -1.7302   -1.4891 H   0  0  0  0  0  0  0  0  0  0  0  0
   -2.6262    1.0816   -2.0072 H   0  0  0  0  0  0  0  0  0  0  0  0
   -4.7493    1.9881   -1.1200 H   0  0  0  0  0  0  0  0  0  0  0  0
   -2.4971   -1.6289    1.2830 H   0  0  0  0  0  0  0  0  0  0  0  0
    2.5792   -1.6838    1.3824 H   0  0  0  0  0  0  0  0  0  0  0  0
  1  2  1  0
  2  3  2  0
  3  4  1  0
  4  5  2  0
  5  6  1  0
  6  7  1  0
  7  8  2  0
  7  9  1  0
  9 10  1  0
 10 11  2  0
 11 12  1  0
 12 13  2  0
 13 14  1  0
 13 15  1  0
 15 16  1  0
 15 17  2  0
  5 18  1  0
 18 19  2  0
 19 20  1  0
 19  2  1  0
 17 10  1  0
  3 21  1  0
  4 22  1  0
  6 23  1  0
  9 24  1  0
 11 25  1  0
 12 26  1  0
 17 27  1  0
 18 28  1  0
M  END
>  <Batch_No>  (143) 
5402867

>  <EC50_nM>  (143) 
2060

>  <Set>  (143) 
Drug-like

>  <Molecular_Weight>  (143) 
333.57282

>  <ALogP>  (143) 
4.721

$$$$
MMV000648
     RDKit          3D

 60 63  0  0  0  0  0  0  0  0999 V2000
    5.7901    3.1930   -0.8111 C   0  0  0  0  0  0  0  0  0  0  0  0
    4.9296    2.1018   -0.7154 O   0  0  0  0  0  0  0  0  0  0  0  0
    5.2437    0.7731   -0.6930 C   0  0  0  0  0  0  0  0  0  0  0  0
    6.5498    0.3170   -0.7671 C   0  0  0  0  0  0  0  0  0  0  0  0
    6.8834   -1.0196   -0.7449 C   0  0  0  0  0  0  0  0  0  0  0  0
    5.8676   -1.9399   -0.6442 C   0  0  0  0  0  0  0  0  0  0  0  0
    4.5603   -1.4955   -0.5699 C   0  0  0  0  0  0  0  0  0  0  0  0
    4.2058   -0.1678   -0.5903 C   0  0  0  0  0  0  0  0  0  0  0  0
    2.8451    0.3595   -0.5271 C   0  0  0  0  0  0  0  0  0  0  0  0
    1.8173   -0.5728   -0.1645 N   0  0  0  0  0  0  0  0  0  0  0  0
    0.4758   -0.0686   -0.1397 C   0  0  0  0  0  0  0  0  0  0  0  0
    0.3653    1.1532   -0.4613 O   0  0  0  0  0  0  0  0  0  0  0  0
   -0.7021   -0.9049    0.2317 C   0  0  0  0  0  0  0  0  0  0  0  0
   -1.9527   -0.4623   -0.4396 C   0  0  0  0  0  0  0  0  0  0  0  0
   -2.8917    0.2840    0.3401 N   0  0  0  0  0  0  0  0  0  0  0  0
   -3.9340    1.1230   -0.1724 C   0  0  0  0  0  0  0  0  0  0  0  0
   -3.5999    2.5563   -0.3457 C   0  0  0  0  0  0  0  0  0  0  0  0
   -4.8842    3.2456   -0.8728 C   0  0  0  0  0  0  0  0  0  0  0  0
   -2.6095    2.7621   -1.4935 C   0  0  0  0  0  0  0  0  0  0  0  0
   -2.8451    0.1544    1.7817 C   0  0  0  0  0  0  0  0  0  0  0  0
   -3.7583    0.6901    2.4950 O   0  0  0  0  0  0  0  0  0  0  0  0
   -1.7812   -0.5732    2.4537 C   0  0  0  0  0  0  0  0  0  0  0  0
   -1.8673   -0.7237    3.8187 C   0  0  0  0  0  0  0  0  0  0  0  0
   -0.9385   -1.4798    4.5016 C   0  0  0  0  0  0  0  0  0  0  0  0
    0.0590   -2.0642    3.7560 C   0  0  0  0  0  0  0  0  0  0  0  0
    0.1431   -1.9072    2.3669 C   0  0  0  0  0  0  0  0  0  0  0  0
   -0.7828   -1.1502    1.6832 C   0  0  0  0  0  0  0  0  0  0  0  0
   -2.7650   -1.7093   -0.8701 C   0  0  0  0  0  0  0  0  0  0  0  0
   -2.8554   -2.2972   -2.0560 C   0  0  0  0  0  0  0  0  0  0  0  0
   -3.6556   -3.3974   -2.1335 C   0  0  0  0  0  0  0  0  0  0  0  0
   -4.2545   -3.7598   -1.0207 C   0  0  0  0  0  0  0  0  0  0  0  0
   -3.7891   -2.6594    0.1928 S   0  0  0  0  0  0  0  0  0  0  0  0
    5.5256    3.7049   -1.7768 H   0  0  0  0  0  0  0  0  0  0  0  0
    5.4786    3.9350   -0.0179 H   0  0  0  0  0  0  0  0  0  0  0  0
    6.8605    2.9737   -0.7614 H   0  0  0  0  0  0  0  0  0  0  0  0
    7.3825    1.0120   -0.8473 H   0  0  0  0  0  0  0  0  0  0  0  0
    7.8960   -1.3938   -0.8012 H   0  0  0  0  0  0  0  0  0  0  0  0
    6.1259   -3.0025   -0.6252 H   0  0  0  0  0  0  0  0  0  0  0  0
    3.7950   -2.2442   -0.4954 H   0  0  0  0  0  0  0  0  0  0  0  0
    2.8475    1.1569    0.2646 H   0  0  0  0  0  0  0  0  0  0  0  0
    2.5794    0.8290   -1.5108 H   0  0  0  0  0  0  0  0  0  0  0  0
    2.0087   -1.5623    0.0629 H   0  0  0  0  0  0  0  0  0  0  0  0
   -0.4399   -1.9259   -0.2097 H   0  0  0  0  0  0  0  0  0  0  0  0
   -1.7493    0.0130   -1.4311 H   0  0  0  0  0  0  0  0  0  0  0  0
   -4.3416    0.7312   -1.1495 H   0  0  0  0  0  0  0  0  0  0  0  0
   -4.8464    1.0802    0.5009 H   0  0  0  0  0  0  0  0  0  0  0  0
   -3.3230    3.1018    0.5600 H   0  0  0  0  0  0  0  0  0  0  0  0
   -4.6132    4.1329   -1.4654 H   0  0  0  0  0  0  0  0  0  0  0  0
   -5.4270    2.4896   -1.4368 H   0  0  0  0  0  0  0  0  0  0  0  0
   -5.4424    3.5760    0.0238 H   0  0  0  0  0  0  0  0  0  0  0  0
   -2.7540    1.9869   -2.2634 H   0  0  0  0  0  0  0  0  0  0  0  0
   -1.5766    2.8413   -1.1783 H   0  0  0  0  0  0  0  0  0  0  0  0
   -2.8567    3.7291   -2.0280 H   0  0  0  0  0  0  0  0  0  0  0  0
   -2.6472   -0.2621    4.3763 H   0  0  0  0  0  0  0  0  0  0  0  0
   -1.0035   -1.6000    5.5671 H   0  0  0  0  0  0  0  0  0  0  0  0
    0.8000   -2.6665    4.2819 H   0  0  0  0  0  0  0  0  0  0  0  0
    0.9551   -2.4176    1.9011 H   0  0  0  0  0  0  0  0  0  0  0  0
   -2.3111   -1.9251   -2.9562 H   0  0  0  0  0  0  0  0  0  0  0  0
   -3.7852   -3.9505   -3.1024 H   0  0  0  0  0  0  0  0  0  0  0  0
   -5.0062   -4.7030   -0.8706 H   0  0  0  0  0  0  0  0  0  0  0  0
  1  2  1  0
  2  3  1  0
  3  4  2  0
  4  5  1  0
  5  6  2  0
  6  7  1  0
  7  8  2  0
  8  9  1  0
  9 10  1  0
 10 11  1  0
 11 12  2  0
 11 13  1  0
 13 14  1  0
 14 15  1  0
 15 16  1  0
 16 17  1  0
 17 18  1  0
 17 19  1  0
 15 20  1  0
 20 21  2  0
 20 22  1  0
 22 23  2  0
 23 24  1  0
 24 25  2  0
 25 26  1  0
 26 27  2  0
 14 28  1  0
 28 29  2  0
 29 30  1  0
 30 31  2  0
 31 32  1  0
  8  3  1  0
 27 13  1  0
 27 22  1  0
 32 28  1  0
  1 33  1  0
  1 34  1  0
  1 35  1  0
  4 36  1  0
  5 37  1  0
  6 38  1  0
  7 39  1  0
  9 40  1  0
  9 41  1  0
 10 42  1  0
 13 43  1  0
 14 44  1  0
 16 45  1  0
 16 46  1  0
 17 47  1  0
 18 48  1  0
 18 49  1  0
 18 50  1  0
 19 51  1  0
 19 52  1  0
 19 53  1  0
 23 54  1  0
 24 55  1  0
 25 56  1  0
 26 57  1  0
 29 58  1  0
 30 59  1  0
 31 60  1  0
M  END
>  <Batch_No>  (144) 
E456-0718

>  <EC50_nM>  (144) 
ND

>  <Set>  (144) 
Drug-like

>  <Molecular_Weight>  (144) 
448.57712

>  <ALogP>  (144) 
4.434

$$$$
MMV019662
     RDKit          3D

 69 73  0  0  0  0  0  0  0  0999 V2000
    9.6411    1.8532   -0.9748 C   0  0  0  0  0  0  0  0  0  0  0  0
    8.5980    2.2723   -0.1381 O   0  0  0  0  0  0  0  0  0  0  0  0
    7.3916    1.6416    0.0262 C   0  0  0  0  0  0  0  0  0  0  0  0
    6.4807    2.2015    0.8958 C   0  0  0  0  0  0  0  0  0  0  0  0
    5.2467    1.6285    1.1155 C   0  0  0  0  0  0  0  0  0  0  0  0
    4.8439    0.4551    0.4775 C   0  0  0  0  0  0  0  0  0  0  0  0
    5.7745   -0.0922   -0.3929 C   0  0  0  0  0  0  0  0  0  0  0  0
    7.0139    0.4831   -0.6138 C   0  0  0  0  0  0  0  0  0  0  0  0
    3.5845   -0.1158    0.7106 N   0  0  0  0  0  0  0  0  0  0  0  0
    3.0819   -1.3198    0.0980 C   0  0  0  0  0  0  0  0  0  0  0  0
    1.6622   -1.0008   -0.3478 C   0  0  0  0  0  0  0  0  0  0  0  0
    0.8436   -0.8390    0.8207 N   0  0  0  0  0  0  0  0  0  0  0  0
    1.5175   -0.3682    1.9606 C   0  0  0  0  0  0  0  0  0  0  0  0
    2.6900    0.5558    1.6545 C   0  0  0  0  0  0  0  0  0  0  0  0
   -0.4797   -0.3933    0.5566 C   0  0  0  0  0  0  0  0  0  0  0  0
   -1.3939   -0.2211    1.7100 C   0  0  0  0  0  0  0  0  0  0  0  0
   -2.7042    0.2329    1.2671 N   0  0  0  0  0  0  0  0  0  0  0  0
   -2.9134    1.4586    0.5774 C   0  0  0  0  0  0  0  0  0  0  0  0
   -1.9477    2.2353    0.3096 O   0  0  0  0  0  0  0  0  0  0  0  0
   -4.2997    1.8187    0.1706 C   0  0  0  0  0  0  0  0  0  0  0  0
   -5.2211    1.9258    1.3618 C   0  0  0  0  0  0  0  0  0  0  0  0
   -6.5440    2.4773    0.8959 C   0  0  0  0  0  0  0  0  0  0  0  0
   -6.5759    2.7578   -0.5762 C   0  0  0  0  0  0  0  0  0  0  0  0
   -6.0993    1.6288   -1.4255 C   0  0  0  0  0  0  0  0  0  0  0  0
   -4.9253    0.8699   -0.7920 C   0  0  0  0  0  0  0  0  0  0  0  0
   -1.0999   -1.4623   -0.3126 C   0  0  0  0  0  0  0  0  0  0  0  0
   -1.8288   -1.1556   -1.4337 C   0  0  0  0  0  0  0  0  0  0  0  0
   -2.3835   -2.1455   -2.2080 C   0  0  0  0  0  0  0  0  0  0  0  0
   -2.2125   -3.4664   -1.8647 C   0  0  0  0  0  0  0  0  0  0  0  0
   -2.6427   -4.6508   -2.4383 O   0  0  0  0  0  0  0  0  0  0  0  0
   -2.3754   -5.7102   -1.5461 C   0  0  0  0  0  0  0  0  0  0  0  0
   -1.4576   -5.2136   -0.6117 O   0  0  0  0  0  0  0  0  0  0  0  0
   -1.4805   -3.8227   -0.7358 C   0  0  0  0  0  0  0  0  0  0  0  0
   -0.9405   -2.7994    0.0144 C   0  0  0  0  0  0  0  0  0  0  0  0
   10.3111    2.7372   -1.1038 H   0  0  0  0  0  0  0  0  0  0  0  0
    9.2770    1.6319   -2.0184 H   0  0  0  0  0  0  0  0  0  0  0  0
   10.1778    0.9734   -0.5732 H   0  0  0  0  0  0  0  0  0  0  0  0
    6.7035    3.1276    1.4480 H   0  0  0  0  0  0  0  0  0  0  0  0
    4.5588    2.0976    1.8057 H   0  0  0  0  0  0  0  0  0  0  0  0
    5.5600   -0.9922   -0.9303 H   0  0  0  0  0  0  0  0  0  0  0  0
    7.7108    0.0251   -1.3005 H   0  0  0  0  0  0  0  0  0  0  0  0
    3.0512   -2.0933    0.8954 H   0  0  0  0  0  0  0  0  0  0  0  0
    3.6676   -1.6966   -0.7453 H   0  0  0  0  0  0  0  0  0  0  0  0
    1.6502   -0.1829   -1.0634 H   0  0  0  0  0  0  0  0  0  0  0  0
    1.3163   -1.9419   -0.8548 H   0  0  0  0  0  0  0  0  0  0  0  0
    2.0063   -1.2679    2.4414 H   0  0  0  0  0  0  0  0  0  0  0  0
    0.9563    0.1069    2.7529 H   0  0  0  0  0  0  0  0  0  0  0  0
    2.3979    1.5551    1.3404 H   0  0  0  0  0  0  0  0  0  0  0  0
    3.2530    0.6426    2.6063 H   0  0  0  0  0  0  0  0  0  0  0  0
   -0.4216    0.5492   -0.0250 H   0  0  0  0  0  0  0  0  0  0  0  0
   -1.5426   -1.2372    2.1577 H   0  0  0  0  0  0  0  0  0  0  0  0
   -1.0132    0.4091    2.5419 H   0  0  0  0  0  0  0  0  0  0  0  0
   -3.5712   -0.3582    1.4528 H   0  0  0  0  0  0  0  0  0  0  0  0
   -4.2524    2.8160   -0.3087 H   0  0  0  0  0  0  0  0  0  0  0  0
   -4.7525    2.5006    2.1640 H   0  0  0  0  0  0  0  0  0  0  0  0
   -5.4320    0.8999    1.7245 H   0  0  0  0  0  0  0  0  0  0  0  0
   -6.6661    3.4701    1.4203 H   0  0  0  0  0  0  0  0  0  0  0  0
   -7.4192    1.8799    1.2263 H   0  0  0  0  0  0  0  0  0  0  0  0
   -7.6368    2.9757   -0.8499 H   0  0  0  0  0  0  0  0  0  0  0  0
   -6.0280    3.7143   -0.7710 H   0  0  0  0  0  0  0  0  0  0  0  0
   -5.6582    2.1001   -2.3506 H   0  0  0  0  0  0  0  0  0  0  0  0
   -6.8960    0.9492   -1.7604 H   0  0  0  0  0  0  0  0  0  0  0  0
   -5.4113    0.0170   -0.2568 H   0  0  0  0  0  0  0  0  0  0  0  0
   -4.2711    0.4378   -1.5474 H   0  0  0  0  0  0  0  0  0  0  0  0
   -1.9366   -0.0977   -1.6657 H   0  0  0  0  0  0  0  0  0  0  0  0
   -2.9476   -1.8629   -3.0785 H   0  0  0  0  0  0  0  0  0  0  0  0
   -1.9079   -6.5416   -2.1160 H   0  0  0  0  0  0  0  0  0  0  0  0
   -3.3100   -6.0335   -1.0388 H   0  0  0  0  0  0  0  0  0  0  0  0
   -0.3679   -3.0299    0.8946 H   0  0  0  0  0  0  0  0  0  0  0  0
  1  2  1  0
  2  3  1  0
  3  4  2  0
  4  5  1  0
  5  6  2  0
  6  7  1  0
  7  8  2  0
  6  9  1  0
  9 10  1  0
 10 11  1  0
 11 12  1  0
 12 13  1  0
 13 14  1  0
 12 15  1  0
 15 16  1  0
 16 17  1  0
 17 18  1  0
 18 19  2  0
 18 20  1  0
 20 21  1  0
 21 22  1  0
 22 23  1  0
 23 24  1  0
 24 25  1  0
 15 26  1  0
 26 27  2  0
 27 28  1  0
 28 29  2  0
 29 30  1  0
 30 31  1  0
 31 32  1  0
 32 33  1  0
 33 34  2  0
  8  3  1  0
 14  9  1  0
 25 20  1  0
 34 26  1  0
 33 29  1  0
  1 35  1  0
  1 36  1  0
  1 37  1  0
  4 38  1  0
  5 39  1  0
  7 40  1  0
  8 41  1  0
 10 42  1  0
 10 43  1  0
 11 44  1  0
 11 45  1  0
 13 46  1  0
 13 47  1  0
 14 48  1  0
 14 49  1  0
 15 50  1  0
 16 51  1  0
 16 52  1  0
 17 53  1  0
 20 54  1  0
 21 55  1  0
 21 56  1  0
 22 57  1  0
 22 58  1  0
 23 59  1  0
 23 60  1  0
 24 61  1  0
 24 62  1  0
 25 63  1  0
 25 64  1  0
 27 65  1  0
 28 66  1  0
 31 67  1  0
 31 68  1  0
 34 69  1  0
M  END
>  <Batch_No>  (145) 
G856-4237

>  <EC50_nM>  (145) 
1110

>  <Set>  (145) 
Drug-like

>  <Molecular_Weight>  (145) 
465.58449

>  <ALogP>  (145) 
4.632

$$$$
MMV007571
     RDKit          3D

 40 42  0  0  0  0  0  0  0  0999 V2000
   -6.1734    1.5642    1.3422 C   0  0  0  0  0  0  0  0  0  0  0  0
   -5.0498    0.9921    0.5461 C   0  0  0  0  0  0  0  0  0  0  0  0
   -3.7291    1.1148    0.9075 C   0  0  0  0  0  0  0  0  0  0  0  0
   -2.6967    0.5641    0.1394 C   0  0  0  0  0  0  0  0  0  0  0  0
   -3.0339   -0.1138   -1.0028 C   0  0  0  0  0  0  0  0  0  0  0  0
   -2.0538   -0.7552   -1.9154 C   0  0  0  0  0  0  0  0  0  0  0  0
   -1.8033   -2.4520   -1.3749 S   0  0  0  0  0  0  0  0  0  0  0  0
   -0.9704   -2.5958    0.2035 C   0  0  0  0  0  0  0  0  0  0  0  0
    0.4559   -2.1393    0.1122 C   0  0  0  0  0  0  0  0  0  0  0  0
    0.8600   -0.8970    0.3062 O   0  0  0  0  0  0  0  0  0  0  0  0
    2.1803   -0.8641    0.1448 C   0  0  0  0  0  0  0  0  0  0  0  0
    2.6514   -2.1094   -0.1616 C   0  0  0  0  0  0  0  0  0  0  0  0
    1.5440   -2.9351   -0.1841 C   0  0  0  0  0  0  0  0  0  0  0  0
    2.9809    0.3380    0.2802 C   0  0  0  0  0  0  0  0  0  0  0  0
    2.3656    1.4046    0.5582 O   0  0  0  0  0  0  0  0  0  0  0  0
    4.3752    0.3680    0.1204 N   0  0  0  0  0  0  0  0  0  0  0  0
    5.1103    1.6227    0.2729 C   0  0  0  0  0  0  0  0  0  0  0  0
    6.3221    1.9130   -0.4912 C   0  0  0  0  0  0  0  0  0  0  0  0
    6.4008    1.6319    1.0016 C   0  0  0  0  0  0  0  0  0  0  0  0
   -4.3681   -0.2282   -1.3523 C   0  0  0  0  0  0  0  0  0  0  0  0
   -5.3913    0.3115   -0.6016 C   0  0  0  0  0  0  0  0  0  0  0  0
   -7.1000    0.9595    1.2627 H   0  0  0  0  0  0  0  0  0  0  0  0
   -6.3389    2.5868    0.9080 H   0  0  0  0  0  0  0  0  0  0  0  0
   -5.9047    1.6700    2.4120 H   0  0  0  0  0  0  0  0  0  0  0  0
   -3.5047    1.6486    1.8030 H   0  0  0  0  0  0  0  0  0  0  0  0
   -1.6597    0.6578    0.4160 H   0  0  0  0  0  0  0  0  0  0  0  0
   -1.0817   -0.2167   -1.7154 H   0  0  0  0  0  0  0  0  0  0  0  0
   -2.3407   -0.6709   -2.9665 H   0  0  0  0  0  0  0  0  0  0  0  0
   -1.4740   -2.0340    1.0310 H   0  0  0  0  0  0  0  0  0  0  0  0
   -0.9238   -3.6718    0.4890 H   0  0  0  0  0  0  0  0  0  0  0  0
    3.6667   -2.4466   -0.3577 H   0  0  0  0  0  0  0  0  0  0  0  0
    1.5474   -4.0041   -0.3956 H   0  0  0  0  0  0  0  0  0  0  0  0
    4.9022   -0.5171   -0.1123 H   0  0  0  0  0  0  0  0  0  0  0  0
    4.4290    2.4761    0.5087 H   0  0  0  0  0  0  0  0  0  0  0  0
    6.8033    1.2012   -1.1948 H   0  0  0  0  0  0  0  0  0  0  0  0
    6.5591    2.9818   -0.7416 H   0  0  0  0  0  0  0  0  0  0  0  0
    6.6034    2.4813    1.6994 H   0  0  0  0  0  0  0  0  0  0  0  0
    6.9491    0.7182    1.2587 H   0  0  0  0  0  0  0  0  0  0  0  0
   -4.6640   -0.7594   -2.2503 H   0  0  0  0  0  0  0  0  0  0  0  0
   -6.4445    0.2046   -0.9058 H   0  0  0  0  0  0  0  0  0  0  0  0
  1  2  1  0
  2  3  2  0
  3  4  1  0
  4  5  2  0
  5  6  1  0
  6  7  1  0
  7  8  1  0
  8  9  1  0
  9 10  1  0
 10 11  1  0
 11 12  2  0
 12 13  1  0
 11 14  1  0
 14 15  2  0
 14 16  1  0
 16 17  1  0
 17 18  1  0
 18 19  1  0
  5 20  1  0
 20 21  2  0
 21  2  1  0
 13  9  2  0
 19 17  1  0
  1 22  1  0
  1 23  1  0
  1 24  1  0
  3 25  1  0
  4 26  1  0
  6 27  1  0
  6 28  1  0
  8 29  1  0
  8 30  1  0
 12 31  1  0
 13 32  1  0
 16 33  1  0
 17 34  1  0
 18 35  1  0
 18 36  1  0
 19 37  1  0
 19 38  1  0
 20 39  1  0
 21 40  1  0
M  END
>  <Batch_No>  (146) 
K786-7743

>  <EC50_nM>  (146) 
635

>  <Set>  (146) 
Drug-like

>  <Molecular_Weight>  (146) 
301.40326

>  <ALogP>  (146) 
3.619

$$$$
MMV007617
     RDKit          3D

 50 52  0  0  0  0  0  0  0  0999 V2000
   -5.2307    0.0333    1.7399 C   0  0  0  0  0  0  0  0  0  0  0  0
   -4.5717    1.3513    1.4079 C   0  0  0  0  0  0  0  0  0  0  0  0
   -5.5451    2.1809    0.5630 C   0  0  0  0  0  0  0  0  0  0  0  0
   -3.2854    1.1639    0.6615 C   0  0  0  0  0  0  0  0  0  0  0  0
   -2.0954    1.6160    1.1338 C   0  0  0  0  0  0  0  0  0  0  0  0
   -0.9366    1.4197    0.4103 C   0  0  0  0  0  0  0  0  0  0  0  0
   -0.9220    0.7633   -0.8148 C   0  0  0  0  0  0  0  0  0  0  0  0
    0.2775    0.5532   -1.5752 C   0  0  0  0  0  0  0  0  0  0  0  0
    1.0367   -0.6241   -1.3870 N   0  0  0  0  0  0  0  0  0  0  0  0
    2.0631   -0.8570   -0.5160 C   0  0  0  0  0  0  0  0  0  0  0  0
    2.6239    0.1137    0.4600 C   0  0  0  0  0  0  0  0  0  0  0  0
    3.7522   -0.5272    1.2402 C   0  0  0  0  0  0  0  0  0  0  0  0
    4.3340    0.3739    2.2044 N   0  0  0  0  0  0  0  0  0  0  0  0
    4.9366    1.6056    1.8225 C   0  0  0  0  0  0  0  0  0  0  0  0
    4.9817    1.9534    0.6105 O   0  0  0  0  0  0  0  0  0  0  0  0
    5.5223    2.5054    2.8285 C   0  0  0  0  0  0  0  0  0  0  0  0
    2.4976   -2.1316   -0.6825 N   0  0  0  0  0  0  0  0  0  0  0  0
    1.7718   -2.7287   -1.6451 C   0  0  0  0  0  0  0  0  0  0  0  0
    1.8321   -4.0039   -2.1685 C   0  0  0  0  0  0  0  0  0  0  0  0
    0.9638   -4.3870   -3.1698 C   0  0  0  0  0  0  0  0  0  0  0  0
    0.0450   -3.4649   -3.6247 C   0  0  0  0  0  0  0  0  0  0  0  0
   -0.0015   -2.1833   -3.0854 C   0  0  0  0  0  0  0  0  0  0  0  0
    0.8620   -1.7787   -2.0789 C   0  0  0  0  0  0  0  0  0  0  0  0
   -2.1754    0.3185   -1.2540 C   0  0  0  0  0  0  0  0  0  0  0  0
   -3.3223    0.5129   -0.5378 C   0  0  0  0  0  0  0  0  0  0  0  0
   -6.3349    0.1328    1.5849 H   0  0  0  0  0  0  0  0  0  0  0  0
   -4.9859   -0.2841    2.7742 H   0  0  0  0  0  0  0  0  0  0  0  0
   -4.8998   -0.7768    1.0597 H   0  0  0  0  0  0  0  0  0  0  0  0
   -4.3476    1.8915    2.3436 H   0  0  0  0  0  0  0  0  0  0  0  0
   -6.2995    2.6513    1.2131 H   0  0  0  0  0  0  0  0  0  0  0  0
   -6.0897    1.5219   -0.1277 H   0  0  0  0  0  0  0  0  0  0  0  0
   -4.9851    3.0032    0.0414 H   0  0  0  0  0  0  0  0  0  0  0  0
   -2.0613    2.1361    2.0904 H   0  0  0  0  0  0  0  0  0  0  0  0
   -0.0277    1.8081    0.8496 H   0  0  0  0  0  0  0  0  0  0  0  0
    0.9785    1.4195   -1.3896 H   0  0  0  0  0  0  0  0  0  0  0  0
    0.0604    0.6513   -2.6766 H   0  0  0  0  0  0  0  0  0  0  0  0
    1.8044    0.3093    1.2130 H   0  0  0  0  0  0  0  0  0  0  0  0
    2.8836    1.0847    0.0445 H   0  0  0  0  0  0  0  0  0  0  0  0
    4.5321   -0.8643    0.5168 H   0  0  0  0  0  0  0  0  0  0  0  0
    3.3875   -1.4144    1.7639 H   0  0  0  0  0  0  0  0  0  0  0  0
    4.3342    0.1511    3.2385 H   0  0  0  0  0  0  0  0  0  0  0  0
    6.4388    2.9720    2.4437 H   0  0  0  0  0  0  0  0  0  0  0  0
    4.7916    3.2949    3.1104 H   0  0  0  0  0  0  0  0  0  0  0  0
    5.7701    1.9497    3.7526 H   0  0  0  0  0  0  0  0  0  0  0  0
    2.5706   -4.7032   -1.7837 H   0  0  0  0  0  0  0  0  0  0  0  0
    0.9789   -5.3765   -3.6060 H   0  0  0  0  0  0  0  0  0  0  0  0
   -0.6316   -3.7563   -4.4018 H   0  0  0  0  0  0  0  0  0  0  0  0
   -0.7298   -1.5228   -3.4786 H   0  0  0  0  0  0  0  0  0  0  0  0
   -2.2817   -0.2113   -2.2068 H   0  0  0  0  0  0  0  0  0  0  0  0
   -4.2702    0.1538   -0.9123 H   0  0  0  0  0  0  0  0  0  0  0  0
  1  2  1  0
  2  3  1  0
  2  4  1  0
  4  5  2  0
  5  6  1  0
  6  7  2  0
  7  8  1  0
  8  9  1  0
  9 10  1  0
 10 11  1  0
 11 12  1  0
 12 13  1  0
 13 14  1  0
 14 15  2  0
 14 16  1  0
 10 17  2  0
 17 18  1  0
 18 19  2  0
 19 20  1  0
 20 21  2  0
 21 22  1  0
 22 23  2  0
  7 24  1  0
 24 25  2  0
 25  4  1  0
 23  9  1  0
 23 18  1  0
  1 26  1  0
  1 27  1  0
  1 28  1  0
  2 29  1  0
  3 30  1  0
  3 31  1  0
  3 32  1  0
  5 33  1  0
  6 34  1  0
  8 35  1  0
  8 36  1  0
 11 37  1  0
 11 38  1  0
 12 39  1  0
 12 40  1  0
 13 41  1  0
 16 42  1  0
 16 43  1  0
 16 44  1  0
 19 45  1  0
 20 46  1  0
 21 47  1  0
 22 48  1  0
 24 49  1  0
 25 50  1  0
M  END
>  <Batch_No>  (147) 
STK738523

>  <EC50_nM>  (147) 
1790

>  <Set>  (147) 
Drug-like

>  <Molecular_Weight>  (147) 
335.4427

>  <ALogP>  (147) 
3.897

$$$$
MMV665796
     RDKit          3D

 50 51  0  0  0  0  0  0  0  0999 V2000
   -5.7229   -1.8233   -1.2512 C   0  0  0  0  0  0  0  0  0  0  0  0
   -5.3147   -0.4646   -1.7946 C   0  0  0  0  0  0  0  0  0  0  0  0
   -4.6377    0.3216   -0.8562 O   0  0  0  0  0  0  0  0  0  0  0  0
   -3.4457   -0.0642   -0.2686 C   0  0  0  0  0  0  0  0  0  0  0  0
   -2.8016   -1.2507   -0.5416 C   0  0  0  0  0  0  0  0  0  0  0  0
   -1.6100   -1.5925    0.0725 C   0  0  0  0  0  0  0  0  0  0  0  0
   -0.8520   -3.2765   -0.4026 Br  0  0  0  0  0  0  0  0  0  0  0  0
   -0.9918   -0.7555    1.0031 C   0  0  0  0  0  0  0  0  0  0  0  0
   -1.6673    0.4351    1.2571 C   0  0  0  0  0  0  0  0  0  0  0  0
   -2.8515    0.7741    0.6466 C   0  0  0  0  0  0  0  0  0  0  0  0
   -3.4482    2.0061    0.9797 O   0  0  0  0  0  0  0  0  0  0  0  0
   -2.8683    2.8844    1.9082 C   0  0  0  0  0  0  0  0  0  0  0  0
   -3.7421    4.0954    2.0380 C   0  0  0  0  0  0  0  0  0  0  0  0
    0.2806   -1.1184    1.6488 C   0  0  0  0  0  0  0  0  0  0  0  0
    0.2146   -2.0249    2.8273 C   0  0  0  0  0  0  0  0  0  0  0  0
    1.3815   -1.3544    0.7426 N   0  0  0  0  0  0  0  0  0  0  0  0
    2.4584   -0.4334    0.5698 C   0  0  0  0  0  0  0  0  0  0  0  0
    2.4365    0.6469    1.2533 O   0  0  0  0  0  0  0  0  0  0  0  0
    3.5715   -0.6616   -0.3387 C   0  0  0  0  0  0  0  0  0  0  0  0
    3.7022   -1.7900   -1.1216 C   0  0  0  0  0  0  0  0  0  0  0  0
    4.7957   -1.9348   -1.9648 C   0  0  0  0  0  0  0  0  0  0  0  0
    5.7900   -0.9890   -2.0701 C   0  0  0  0  0  0  0  0  0  0  0  0
    5.6584    0.1560   -1.2765 C   0  0  0  0  0  0  0  0  0  0  0  0
    6.6219    1.1480   -1.3323 O   0  0  0  0  0  0  0  0  0  0  0  0
    6.5844    2.3401   -0.5746 C   0  0  0  0  0  0  0  0  0  0  0  0
    4.5676    0.2834   -0.4458 C   0  0  0  0  0  0  0  0  0  0  0  0
   -5.4118   -1.9579   -0.2022 H   0  0  0  0  0  0  0  0  0  0  0  0
   -5.4381   -2.6571   -1.9269 H   0  0  0  0  0  0  0  0  0  0  0  0
   -6.8422   -1.8537   -1.2271 H   0  0  0  0  0  0  0  0  0  0  0  0
   -6.1858    0.0652   -2.2294 H   0  0  0  0  0  0  0  0  0  0  0  0
   -4.5951   -0.6317   -2.6492 H   0  0  0  0  0  0  0  0  0  0  0  0
   -3.2602   -1.9115   -1.2574 H   0  0  0  0  0  0  0  0  0  0  0  0
   -1.2352    1.1374    1.9784 H   0  0  0  0  0  0  0  0  0  0  0  0
   -1.8172    3.1257    1.6792 H   0  0  0  0  0  0  0  0  0  0  0  0
   -2.8876    2.3373    2.8888 H   0  0  0  0  0  0  0  0  0  0  0  0
   -3.6808    4.4354    3.0923 H   0  0  0  0  0  0  0  0  0  0  0  0
   -3.4494    4.9150    1.3449 H   0  0  0  0  0  0  0  0  0  0  0  0
   -4.7981    3.8766    1.8024 H   0  0  0  0  0  0  0  0  0  0  0  0
    0.5894   -0.1269    2.1304 H   0  0  0  0  0  0  0  0  0  0  0  0
   -0.6298   -1.7233    3.4387 H   0  0  0  0  0  0  0  0  0  0  0  0
    1.1291   -1.8735    3.4429 H   0  0  0  0  0  0  0  0  0  0  0  0
    0.2471   -3.1019    2.5761 H   0  0  0  0  0  0  0  0  0  0  0  0
    1.4367   -2.2252    0.1710 H   0  0  0  0  0  0  0  0  0  0  0  0
    2.9644   -2.5647   -1.0885 H   0  0  0  0  0  0  0  0  0  0  0  0
    4.9017   -2.8342   -2.5907 H   0  0  0  0  0  0  0  0  0  0  0  0
    6.6437   -1.0911   -2.7219 H   0  0  0  0  0  0  0  0  0  0  0  0
    5.5433    2.7474   -0.6559 H   0  0  0  0  0  0  0  0  0  0  0  0
    7.3147    3.0485   -1.0035 H   0  0  0  0  0  0  0  0  0  0  0  0
    6.8531    2.1115    0.4629 H   0  0  0  0  0  0  0  0  0  0  0  0
    4.4985    1.1955    0.1618 H   0  0  0  0  0  0  0  0  0  0  0  0
  1  2  1  0
  2  3  1  0
  3  4  1  0
  4  5  2  0
  5  6  1  0
  6  7  1  0
  6  8  2  0
  8  9  1  0
  9 10  2  0
 10 11  1  0
 11 12  1  0
 12 13  1  0
  8 14  1  0
 14 15  1  0
 14 16  1  0
 16 17  1  0
 17 18  2  0
 17 19  1  0
 19 20  2  0
 20 21  1  0
 21 22  2  0
 22 23  1  0
 23 24  1  0
 24 25  1  0
 23 26  2  0
 10  4  1  0
 26 19  1  0
  1 27  1  0
  1 28  1  0
  1 29  1  0
  2 30  1  0
  2 31  1  0
  5 32  1  0
  9 33  1  0
 12 34  1  0
 12 35  1  0
 13 36  1  0
 13 37  1  0
 13 38  1  0
 14 39  1  0
 15 40  1  0
 15 41  1  0
 15 42  1  0
 16 43  1  0
 20 44  1  0
 21 45  1  0
 22 46  1  0
 25 47  1  0
 25 48  1  0
 25 49  1  0
 26 50  1  0
M  END
>  <Batch_No>  (148) 
AN-153/41789078

>  <EC50_nM>  (148) 
1430

>  <Set>  (148) 
Drug-like

>  <Molecular_Weight>  (148) 
422.31286

>  <ALogP>  (148) 
4.395

$$$$
MMV665906
     RDKit          3D

 55 58  0  0  0  0  0  0  0  0999 V2000
  -10.4907    0.4692    0.0773 C   0  0  0  0  0  0  0  0  0  0  0  0
   -9.0329    0.2163    0.0044 C   0  0  0  0  0  0  0  0  0  0  0  0
   -8.5227   -0.9504   -0.5139 C   0  0  0  0  0  0  0  0  0  0  0  0
   -7.1419   -1.1529   -0.5660 C   0  0  0  0  0  0  0  0  0  0  0  0
   -6.2640   -0.1984   -0.1040 C   0  0  0  0  0  0  0  0  0  0  0  0
   -6.8071    0.9579    0.4087 C   0  0  0  0  0  0  0  0  0  0  0  0
   -5.9763    1.9497    0.8864 O   0  0  0  0  0  0  0  0  0  0  0  0
   -8.1720    1.1877    0.4737 C   0  0  0  0  0  0  0  0  0  0  0  0
   -4.8425   -0.4681   -0.1856 C   0  0  0  0  0  0  0  0  0  0  0  0
   -3.7552    0.2804    0.1882 C   0  0  0  0  0  0  0  0  0  0  0  0
   -2.6143   -0.4333   -0.1045 C   0  0  0  0  0  0  0  0  0  0  0  0
   -3.0173   -1.5809   -0.6405 N   0  0  0  0  0  0  0  0  0  0  0  0
   -4.3391   -1.6082   -0.6916 N   0  0  0  0  0  0  0  0  0  0  0  0
   -1.2671    0.0316    0.1473 C   0  0  0  0  0  0  0  0  0  0  0  0
   -1.0645    1.1541    0.6659 O   0  0  0  0  0  0  0  0  0  0  0  0
   -0.1275   -0.7642   -0.1828 N   0  0  0  0  0  0  0  0  0  0  0  0
    1.1467   -0.1830    0.1199 C   0  0  0  0  0  0  0  0  0  0  0  0
    1.7250    0.5775   -0.8710 C   0  0  0  0  0  0  0  0  0  0  0  0
    2.9563    1.1757   -0.6618 C   0  0  0  0  0  0  0  0  0  0  0  0
    3.6102    1.0056    0.5572 C   0  0  0  0  0  0  0  0  0  0  0  0
    3.0112    0.2352    1.5444 C   0  0  0  0  0  0  0  0  0  0  0  0
    1.7710   -0.3649    1.3280 C   0  0  0  0  0  0  0  0  0  0  0  0
    5.1455    1.7790    0.7559 S   0  0  0  0  0  0  0  0  0  0  0  0
    5.3204    2.1724    2.1915 O   0  0  0  0  0  0  0  0  0  0  0  0
    5.1848    3.0589   -0.0682 O   0  0  0  0  0  0  0  0  0  0  0  0
    6.4849    0.8529    0.2891 N   0  0  0  0  0  0  0  0  0  0  0  0
    6.5066    0.4808   -1.1013 C   0  0  0  0  0  0  0  0  0  0  0  0
    7.7999   -0.2859   -1.3452 C   0  0  0  0  0  0  0  0  0  0  0  0
    7.6091   -1.6570   -0.7464 C   0  0  0  0  0  0  0  0  0  0  0  0
    6.8961   -1.5559    0.5582 C   0  0  0  0  0  0  0  0  0  0  0  0
    6.8679   -0.1980    1.1809 C   0  0  0  0  0  0  0  0  0  0  0  0
  -10.7316    1.4706   -0.3375 H   0  0  0  0  0  0  0  0  0  0  0  0
  -10.7467    0.4377    1.1759 H   0  0  0  0  0  0  0  0  0  0  0  0
  -11.0767   -0.3012   -0.4464 H   0  0  0  0  0  0  0  0  0  0  0  0
   -9.2059   -1.7229   -0.8870 H   0  0  0  0  0  0  0  0  0  0  0  0
   -6.8106   -2.0971   -0.9879 H   0  0  0  0  0  0  0  0  0  0  0  0
   -5.9402    2.8440    0.3997 H   0  0  0  0  0  0  0  0  0  0  0  0
   -8.5619    2.1155    0.8864 H   0  0  0  0  0  0  0  0  0  0  0  0
   -3.7796    1.2488    0.6298 H   0  0  0  0  0  0  0  0  0  0  0  0
   -2.3885   -2.3396   -0.9686 H   0  0  0  0  0  0  0  0  0  0  0  0
   -0.2355   -1.7035   -0.6150 H   0  0  0  0  0  0  0  0  0  0  0  0
    1.2418    0.7322   -1.8378 H   0  0  0  0  0  0  0  0  0  0  0  0
    3.3818    1.7623   -1.4524 H   0  0  0  0  0  0  0  0  0  0  0  0
    3.5058    0.0996    2.4822 H   0  0  0  0  0  0  0  0  0  0  0  0
    1.2921   -0.9676    2.0872 H   0  0  0  0  0  0  0  0  0  0  0  0
    5.6626   -0.1778   -1.3708 H   0  0  0  0  0  0  0  0  0  0  0  0
    6.4670    1.4128   -1.7018 H   0  0  0  0  0  0  0  0  0  0  0  0
    8.6501    0.2548   -0.9321 H   0  0  0  0  0  0  0  0  0  0  0  0
    7.8772   -0.3895   -2.4482 H   0  0  0  0  0  0  0  0  0  0  0  0
    6.9621   -2.2317   -1.4606 H   0  0  0  0  0  0  0  0  0  0  0  0
    8.5777   -2.2122   -0.6703 H   0  0  0  0  0  0  0  0  0  0  0  0
    5.8698   -2.0036    0.5000 H   0  0  0  0  0  0  0  0  0  0  0  0
    7.4385   -2.2375    1.2759 H   0  0  0  0  0  0  0  0  0  0  0  0
    7.8332    0.0650    1.6506 H   0  0  0  0  0  0  0  0  0  0  0  0
    6.1169   -0.2428    2.0060 H   0  0  0  0  0  0  0  0  0  0  0  0
  1  2  1  0
  2  3  2  0
  3  4  1  0
  4  5  2  0
  5  6  1  0
  6  7  1  0
  6  8  2  0
  5  9  1  0
  9 10  1  0
 10 11  2  0
 11 12  1  0
 12 13  1  0
 11 14  1  0
 14 15  2  0
 14 16  1  0
 16 17  1  0
 17 18  2  0
 18 19  1  0
 19 20  2  0
 20 21  1  0
 21 22  2  0
 20 23  1  0
 23 24  2  0
 23 25  2  0
 23 26  1  0
 26 27  1  0
 27 28  1  0
 28 29  1  0
 29 30  1  0
 30 31  1  0
  8  2  1  0
 13  9  2  0
 22 17  1  0
 31 26  1  0
  1 32  1  0
  1 33  1  0
  1 34  1  0
  3 35  1  0
  4 36  1  0
  7 37  1  0
  8 38  1  0
 10 39  1  0
 12 40  1  0
 16 41  1  0
 18 42  1  0
 19 43  1  0
 21 44  1  0
 22 45  1  0
 27 46  1  0
 27 47  1  0
 28 48  1  0
 28 49  1  0
 29 50  1  0
 29 51  1  0
 30 52  1  0
 30 53  1  0
 31 54  1  0
 31 55  1  0
M  END
>  <Batch_No>  (149) 
OSSK_621210

>  <EC50_nM>  (149) 
535

>  <Set>  (149) 
Drug-like

>  <Molecular_Weight>  (149) 
440.51535

>  <ALogP>  (149) 
3.575

$$$$
MMV665954
     RDKit          3D

 50 54  0  0  0  0  0  0  0  0999 V2000
    1.9805    0.5174   -0.8789 O   0  0  0  0  0  0  0  0  0  0  0  0
    1.8628    0.3021    0.3400 C   0  0  0  0  0  0  0  0  0  0  0  0
    0.7963    0.9751    1.0040 N   0  0  0  0  0  0  0  0  0  0  0  0
   -0.0286    1.8599    0.2565 C   0  0  0  0  0  0  0  0  0  0  0  0
   -0.8007    1.3397   -0.8961 C   0  0  0  0  0  0  0  0  0  0  0  0
   -1.5365    2.5429   -1.5001 C   0  0  0  0  0  0  0  0  0  0  0  0
   -2.9305    2.2551   -1.1203 C   0  0  0  0  0  0  0  0  0  0  0  0
   -4.0412    3.0891   -1.2424 C   0  0  0  0  0  0  0  0  0  0  0  0
   -5.2924    2.6922   -0.8445 C   0  0  0  0  0  0  0  0  0  0  0  0
   -5.4183    1.4299   -0.3152 C   0  0  0  0  0  0  0  0  0  0  0  0
   -4.3064    0.5888   -0.1903 C   0  0  0  0  0  0  0  0  0  0  0  0
   -3.0459    0.9735   -0.5857 C   0  0  0  0  0  0  0  0  0  0  0  0
   -1.7800    0.3755   -0.5875 O   0  0  0  0  0  0  0  0  0  0  0  0
   -4.5858   -0.7222    0.3818 C   0  0  0  0  0  0  0  0  0  0  0  0
   -4.1776   -1.9096   -0.1735 C   0  0  0  0  0  0  0  0  0  0  0  0
   -4.5153   -3.0723    0.5077 C   0  0  0  0  0  0  0  0  0  0  0  0
   -5.2028   -3.0856    1.6506 N   0  0  0  0  0  0  0  0  0  0  0  0
   -5.5960   -1.9243    2.1860 C   0  0  0  0  0  0  0  0  0  0  0  0
   -5.2995   -0.7295    1.5697 C   0  0  0  0  0  0  0  0  0  0  0  0
    2.7911   -0.5998    1.0702 C   0  0  0  0  0  0  0  0  0  0  0  0
    2.4224   -1.0470    2.3389 C   0  0  0  0  0  0  0  0  0  0  0  0
    3.8585   -2.0712    2.9062 S   0  0  0  0  0  0  0  0  0  0  0  0
    4.7765   -1.7855    1.3987 C   0  0  0  0  0  0  0  0  0  0  0  0
    6.1025   -2.2712    1.0405 C   0  0  0  0  0  0  0  0  0  0  0  0
    6.8677   -1.3629    0.1321 C   0  0  0  0  0  0  0  0  0  0  0  0
    6.0697   -0.2921   -0.4990 C   0  0  0  0  0  0  0  0  0  0  0  0
    4.6230   -0.6583   -0.7370 C   0  0  0  0  0  0  0  0  0  0  0  0
    3.9764   -0.9775    0.6058 C   0  0  0  0  0  0  0  0  0  0  0  0
    0.6471    0.7960    2.0361 H   0  0  0  0  0  0  0  0  0  0  0  0
    0.5972    2.7223   -0.1464 H   0  0  0  0  0  0  0  0  0  0  0  0
   -0.7554    2.3899    0.9237 H   0  0  0  0  0  0  0  0  0  0  0  0
   -0.1164    0.9045   -1.6788 H   0  0  0  0  0  0  0  0  0  0  0  0
   -1.3939    2.5128   -2.5860 H   0  0  0  0  0  0  0  0  0  0  0  0
   -1.1824    3.4891   -1.0454 H   0  0  0  0  0  0  0  0  0  0  0  0
   -3.9699    4.0919   -1.6562 H   0  0  0  0  0  0  0  0  0  0  0  0
   -6.1584    3.3503   -0.9380 H   0  0  0  0  0  0  0  0  0  0  0  0
   -6.4183    1.0939    0.0125 H   0  0  0  0  0  0  0  0  0  0  0  0
   -3.6211   -1.9017   -1.0997 H   0  0  0  0  0  0  0  0  0  0  0  0
   -4.2018   -4.0044    0.0720 H   0  0  0  0  0  0  0  0  0  0  0  0
   -6.1551   -1.8583    3.1129 H   0  0  0  0  0  0  0  0  0  0  0  0
   -5.6194    0.2364    2.0124 H   0  0  0  0  0  0  0  0  0  0  0  0
    1.5299   -0.8977    2.9401 H   0  0  0  0  0  0  0  0  0  0  0  0
    6.0115   -3.3081    0.6307 H   0  0  0  0  0  0  0  0  0  0  0  0
    6.6963   -2.3902    1.9972 H   0  0  0  0  0  0  0  0  0  0  0  0
    7.3874   -2.0034   -0.6423 H   0  0  0  0  0  0  0  0  0  0  0  0
    7.7238   -0.8647    0.6864 H   0  0  0  0  0  0  0  0  0  0  0  0
    6.5073   -0.1306   -1.5294 H   0  0  0  0  0  0  0  0  0  0  0  0
    6.1576    0.7095   -0.0180 H   0  0  0  0  0  0  0  0  0  0  0  0
    4.1703    0.2009   -1.2342 H   0  0  0  0  0  0  0  0  0  0  0  0
    4.5940   -1.5706   -1.3425 H   0  0  0  0  0  0  0  0  0  0  0  0
  1  2  2  0
  2  3  1  0
  3  4  1  0
  4  5  1  0
  5  6  1  0
  6  7  1  0
  7  8  2  0
  8  9  1  0
  9 10  2  0
 10 11  1  0
 11 12  2  0
 12 13  1  0
 11 14  1  0
 14 15  2  0
 15 16  1  0
 16 17  2  0
 17 18  1  0
 18 19  2  0
  2 20  1  0
 20 21  2  0
 21 22  1  0
 22 23  1  0
 23 24  1  0
 24 25  1  0
 25 26  1  0
 26 27  1  0
 27 28  1  0
 13  5  1  0
 12  7  1  0
 19 14  1  0
 28 20  1  0
 28 23  2  0
  3 29  1  0
  4 30  1  0
  4 31  1  0
  5 32  1  0
  6 33  1  0
  6 34  1  0
  8 35  1  0
  9 36  1  0
 10 37  1  0
 15 38  1  0
 16 39  1  0
 18 40  1  0
 19 41  1  0
 21 42  1  0
 24 43  1  0
 24 44  1  0
 25 45  1  0
 25 46  1  0
 26 47  1  0
 26 48  1  0
 27 49  1  0
 27 50  1  0
M  END
>  <Batch_No>  (150) 
15059199

>  <EC50_nM>  (150) 
1720

>  <Set>  (150) 
Drug-like

>  <Molecular_Weight>  (150) 
390.49797

>  <ALogP>  (150) 
4.186

$$$$
MMV019738
     RDKit          3D

 55 58  0  0  0  0  0  0  0  0999 V2000
    2.3012   -0.3291   -2.7581 C   0  0  0  0  0  0  0  0  0  0  0  0
    3.1850   -0.3852   -1.5856 C   0  0  0  0  0  0  0  0  0  0  0  0
    4.5375   -0.2827   -1.6444 N   0  0  0  0  0  0  0  0  0  0  0  0
    5.0193   -0.3846   -0.3993 C   0  0  0  0  0  0  0  0  0  0  0  0
    3.9538   -0.5526    0.4570 C   0  0  0  0  0  0  0  0  0  0  0  0
    2.7753   -0.5558   -0.2830 C   0  0  0  0  0  0  0  0  0  0  0  0
    1.4074   -0.7054    0.1569 C   0  0  0  0  0  0  0  0  0  0  0  0
    1.1488   -1.6360    0.9857 O   0  0  0  0  0  0  0  0  0  0  0  0
    0.3278    0.0977   -0.2607 N   0  0  0  0  0  0  0  0  0  0  0  0
   -0.9838   -0.1722    0.2590 C   0  0  0  0  0  0  0  0  0  0  0  0
   -1.8245   -0.7526   -0.8702 C   0  0  0  0  0  0  0  0  0  0  0  0
   -2.8120    0.2819   -1.3731 C   0  0  0  0  0  0  0  0  0  0  0  0
   -3.8249    0.5581   -0.3472 N   0  0  0  0  0  0  0  0  0  0  0  0
   -4.7795   -0.5497   -0.3030 C   0  0  0  0  0  0  0  0  0  0  0  0
   -5.9249   -0.1716    0.5343 C   0  0  0  0  0  0  0  0  0  0  0  0
   -7.0081    0.4242   -0.1214 C   0  0  0  0  0  0  0  0  0  0  0  0
   -8.1421    0.8193    0.5449 C   0  0  0  0  0  0  0  0  0  0  0  0
   -8.2233    0.6274    1.8968 C   0  0  0  0  0  0  0  0  0  0  0  0
   -7.1748    0.0421    2.5763 C   0  0  0  0  0  0  0  0  0  0  0  0
   -6.0370   -0.3501    1.8831 C   0  0  0  0  0  0  0  0  0  0  0  0
   -3.1759    0.6490    0.9576 C   0  0  0  0  0  0  0  0  0  0  0  0
   -1.7291    1.0533    0.7383 C   0  0  0  0  0  0  0  0  0  0  0  0
    6.4443   -0.3267   -0.0103 C   0  0  0  0  0  0  0  0  0  0  0  0
    7.3938   -0.1194   -0.9821 C   0  0  0  0  0  0  0  0  0  0  0  0
    8.7442   -0.0668   -0.6223 C   0  0  0  0  0  0  0  0  0  0  0  0
    9.0967   -0.2268    0.7138 C   0  0  0  0  0  0  0  0  0  0  0  0
   10.4142   -0.1793    1.0924 F   0  0  0  0  0  0  0  0  0  0  0  0
    8.1235   -0.4336    1.6633 C   0  0  0  0  0  0  0  0  0  0  0  0
    6.7918   -0.4831    1.3044 C   0  0  0  0  0  0  0  0  0  0  0  0
    1.4707   -1.0812   -2.7209 H   0  0  0  0  0  0  0  0  0  0  0  0
    1.9597    0.6977   -2.9930 H   0  0  0  0  0  0  0  0  0  0  0  0
    2.8932   -0.6298   -3.6729 H   0  0  0  0  0  0  0  0  0  0  0  0
    5.1381   -0.1466   -2.4802 H   0  0  0  0  0  0  0  0  0  0  0  0
    3.9890   -0.6662    1.5250 H   0  0  0  0  0  0  0  0  0  0  0  0
    0.5072    0.8682   -0.9415 H   0  0  0  0  0  0  0  0  0  0  0  0
   -0.9901   -0.9353    1.0520 H   0  0  0  0  0  0  0  0  0  0  0  0
   -1.1799   -1.0672   -1.6900 H   0  0  0  0  0  0  0  0  0  0  0  0
   -2.4251   -1.6287   -0.5378 H   0  0  0  0  0  0  0  0  0  0  0  0
   -3.3638   -0.1877   -2.2285 H   0  0  0  0  0  0  0  0  0  0  0  0
   -2.3396    1.1882   -1.7639 H   0  0  0  0  0  0  0  0  0  0  0  0
   -4.3297   -1.4512    0.1914 H   0  0  0  0  0  0  0  0  0  0  0  0
   -5.0535   -0.8072   -1.3340 H   0  0  0  0  0  0  0  0  0  0  0  0
   -6.9691    0.5844   -1.1825 H   0  0  0  0  0  0  0  0  0  0  0  0
   -8.9465    1.2731   -0.0260 H   0  0  0  0  0  0  0  0  0  0  0  0
   -9.1424    0.9535    2.3809 H   0  0  0  0  0  0  0  0  0  0  0  0
   -7.3000   -0.0856    3.6358 H   0  0  0  0  0  0  0  0  0  0  0  0
   -5.2176   -0.8096    2.4124 H   0  0  0  0  0  0  0  0  0  0  0  0
   -3.1155   -0.3945    1.3714 H   0  0  0  0  0  0  0  0  0  0  0  0
   -3.7162    1.2751    1.6746 H   0  0  0  0  0  0  0  0  0  0  0  0
   -1.6519    1.8898    0.0121 H   0  0  0  0  0  0  0  0  0  0  0  0
   -1.2879    1.4184    1.6993 H   0  0  0  0  0  0  0  0  0  0  0  0
    7.1614    0.0117   -2.0193 H   0  0  0  0  0  0  0  0  0  0  0  0
    9.5281    0.0936   -1.3460 H   0  0  0  0  0  0  0  0  0  0  0  0
    8.3258   -0.5713    2.7233 H   0  0  0  0  0  0  0  0  0  0  0  0
    6.0311   -0.6429    2.0549 H   0  0  0  0  0  0  0  0  0  0  0  0
  1  2  1  0
  2  3  1  0
  3  4  1  0
  4  5  2  0
  5  6  1  0
  6  7  1  0
  7  8  2  0
  7  9  1  0
  9 10  1  0
 10 11  1  0
 11 12  1  0
 12 13  1  0
 13 14  1  0
 14 15  1  0
 15 16  2  0
 16 17  1  0
 17 18  2  0
 18 19  1  0
 19 20  2  0
 13 21  1  0
 21 22  1  0
  4 23  1  0
 23 24  2  0
 24 25  1  0
 25 26  2  0
 26 27  1  0
 26 28  1  0
 28 29  2  0
  6  2  2  0
 22 10  1  0
 20 15  1  0
 29 23  1  0
  1 30  1  0
  1 31  1  0
  1 32  1  0
  3 33  1  0
  5 34  1  0
  9 35  1  0
 10 36  1  0
 11 37  1  0
 11 38  1  0
 12 39  1  0
 12 40  1  0
 14 41  1  0
 14 42  1  0
 16 43  1  0
 17 44  1  0
 18 45  1  0
 19 46  1  0
 20 47  1  0
 21 48  1  0
 21 49  1  0
 22 50  1  0
 22 51  1  0
 24 52  1  0
 25 53  1  0
 28 54  1  0
 29 55  1  0
M  END
>  <Batch_No>  (151) 
E158-0155

>  <EC50_nM>  (151) 
771

>  <Set>  (151) 
Drug-like

>  <Molecular_Weight>  (151) 
391.48114

>  <ALogP>  (151) 
3.986

$$$$
MMV666075
     RDKit          3D

 37 39  0  0  0  0  0  0  0  0999 V2000
    5.7211   -0.0861    0.5731 C   0  0  0  0  0  0  0  0  0  0  0  0
    4.9953   -0.5706   -0.5336 O   0  0  0  0  0  0  0  0  0  0  0  0
    3.6194   -0.4403   -0.5560 C   0  0  0  0  0  0  0  0  0  0  0  0
    2.8870    0.1462    0.4554 C   0  0  0  0  0  0  0  0  0  0  0  0
    1.5039    0.2590    0.3967 C   0  0  0  0  0  0  0  0  0  0  0  0
    0.8613   -0.2420   -0.7257 C   0  0  0  0  0  0  0  0  0  0  0  0
    1.6015   -0.8263   -1.7309 C   0  0  0  0  0  0  0  0  0  0  0  0
    2.9754   -0.9467   -1.6893 C   0  0  0  0  0  0  0  0  0  0  0  0
   -0.5931   -0.1303   -0.8009 C   0  0  0  0  0  0  0  0  0  0  0  0
   -1.1617    1.1221   -0.4367 N   0  0  0  0  0  0  0  0  0  0  0  0
   -0.5604    2.4561   -0.3606 C   0  0  0  0  0  0  0  0  0  0  0  0
   -2.5472    0.8575   -0.1248 C   0  0  0  0  0  0  0  0  0  0  0  0
   -3.6728    1.6731   -0.0886 C   0  0  0  0  0  0  0  0  0  0  0  0
   -4.9084    1.1225    0.2559 C   0  0  0  0  0  0  0  0  0  0  0  0
   -4.9980   -0.2329    0.5580 C   0  0  0  0  0  0  0  0  0  0  0  0
   -3.8656   -1.0257    0.5156 C   0  0  0  0  0  0  0  0  0  0  0  0
   -2.6326   -0.4873    0.1743 C   0  0  0  0  0  0  0  0  0  0  0  0
   -1.3156   -1.0575    0.0509 N   0  0  0  0  0  0  0  0  0  0  0  0
   -0.8570   -2.2751    0.6523 C   0  0  0  0  0  0  0  0  0  0  0  0
    5.9161    1.0073    0.5276 H   0  0  0  0  0  0  0  0  0  0  0  0
    6.7235   -0.6058    0.5487 H   0  0  0  0  0  0  0  0  0  0  0  0
    5.1905   -0.4032    1.5022 H   0  0  0  0  0  0  0  0  0  0  0  0
    3.3847    0.5292    1.3145 H   0  0  0  0  0  0  0  0  0  0  0  0
    0.9664    0.7287    1.2167 H   0  0  0  0  0  0  0  0  0  0  0  0
    1.0719   -1.2068   -2.5917 H   0  0  0  0  0  0  0  0  0  0  0  0
    3.5173   -1.4034   -2.4826 H   0  0  0  0  0  0  0  0  0  0  0  0
   -0.9254   -0.3683   -1.8532 H   0  0  0  0  0  0  0  0  0  0  0  0
   -0.3858    2.6970    0.7282 H   0  0  0  0  0  0  0  0  0  0  0  0
   -1.2865    3.2506   -0.6926 H   0  0  0  0  0  0  0  0  0  0  0  0
    0.3261    2.5526   -0.9851 H   0  0  0  0  0  0  0  0  0  0  0  0
   -3.5962    2.7286   -0.3251 H   0  0  0  0  0  0  0  0  0  0  0  0
   -5.8085    1.7232    0.2957 H   0  0  0  0  0  0  0  0  0  0  0  0
   -5.9666   -0.6552    0.8260 H   0  0  0  0  0  0  0  0  0  0  0  0
   -3.9133   -2.0952    0.7498 H   0  0  0  0  0  0  0  0  0  0  0  0
   -1.5809   -2.5892    1.4260 H   0  0  0  0  0  0  0  0  0  0  0  0
    0.0914   -2.0748    1.2110 H   0  0  0  0  0  0  0  0  0  0  0  0
   -0.7771   -3.1313   -0.0415 H   0  0  0  0  0  0  0  0  0  0  0  0
  1  2  1  0
  2  3  1  0
  3  4  2  0
  4  5  1  0
  5  6  2  0
  6  7  1  0
  7  8  2  0
  6  9  1  0
  9 10  1  0
 10 11  1  0
 10 12  1  0
 12 13  2  0
 13 14  1  0
 14 15  2  0
 15 16  1  0
 16 17  2  0
 17 18  1  0
 18 19  1  0
  8  3  1  0
 18  9  1  0
 17 12  1  0
  1 20  1  0
  1 21  1  0
  1 22  1  0
  4 23  1  0
  5 24  1  0
  7 25  1  0
  8 26  1  0
  9 27  1  0
 11 28  1  0
 11 29  1  0
 11 30  1  0
 13 31  1  0
 14 32  1  0
 15 33  1  0
 16 34  1  0
 19 35  1  0
 19 36  1  0
 19 37  1  0
M  END
>  <Batch_No>  (152) 
BAS 00334901

>  <EC50_nM>  (152) 
ND

>  <Set>  (152) 
Drug-like

>  <Molecular_Weight>  (152) 
254.32692

>  <ALogP>  (152) 
3.739

$$$$
MMV666070
     RDKit          3D

 62 65  0  0  0  0  0  0  0  0999 V2000
  -10.3409    1.7626    2.0849 F   0  0  0  0  0  0  0  0  0  0  0  0
   -9.5626    1.7642    0.9305 C   0  0  0  0  0  0  0  0  0  0  0  0
  -10.3260    1.8994   -0.2083 F   0  0  0  0  0  0  0  0  0  0  0  0
   -8.7259    2.8651    1.0541 F   0  0  0  0  0  0  0  0  0  0  0  0
   -8.7047    0.5426    0.9051 C   0  0  0  0  0  0  0  0  0  0  0  0
   -9.2693   -0.7143    0.7739 C   0  0  0  0  0  0  0  0  0  0  0  0
   -8.4791   -1.8684    0.7485 C   0  0  0  0  0  0  0  0  0  0  0  0
   -7.0928   -1.7771    0.8556 C   0  0  0  0  0  0  0  0  0  0  0  0
   -6.5350   -0.5220    0.9862 C   0  0  0  0  0  0  0  0  0  0  0  0
   -5.0642   -0.2977    1.1086 C   0  0  0  0  0  0  0  0  0  0  0  0
   -4.4483   -0.1203   -0.1860 N   0  0  0  0  0  0  0  0  0  0  0  0
   -3.0421    0.1806   -0.0418 C   0  0  0  0  0  0  0  0  0  0  0  0
   -2.3769    0.3662   -1.3908 C   0  0  0  0  0  0  0  0  0  0  0  0
   -1.3066   -0.6807   -1.6210 C   0  0  0  0  0  0  0  0  0  0  0  0
   -0.3475   -0.5967   -0.5475 N   0  0  0  0  0  0  0  0  0  0  0  0
   -0.8301   -0.7118    0.8099 C   0  0  0  0  0  0  0  0  0  0  0  0
   -2.3103   -0.7830    0.8310 C   0  0  0  0  0  0  0  0  0  0  0  0
    1.0478   -0.4060   -0.7267 C   0  0  0  0  0  0  0  0  0  0  0  0
    1.6696   -0.3306   -1.9505 C   0  0  0  0  0  0  0  0  0  0  0  0
    3.0490   -0.1341   -2.0768 C   0  0  0  0  0  0  0  0  0  0  0  0
    3.8495   -0.0067   -0.9636 C   0  0  0  0  0  0  0  0  0  0  0  0
    3.2408   -0.0805    0.2693 C   0  0  0  0  0  0  0  0  0  0  0  0
    1.8842   -0.2738    0.3854 C   0  0  0  0  0  0  0  0  0  0  0  0
    5.2804    0.2020   -1.1407 C   0  0  0  0  0  0  0  0  0  0  0  0
    5.7336    0.2806   -2.3104 O   0  0  0  0  0  0  0  0  0  0  0  0
    6.1893    0.3215   -0.0589 N   0  0  0  0  0  0  0  0  0  0  0  0
    7.6154    0.5314   -0.2552 C   0  0  0  0  0  0  0  0  0  0  0  0
    8.4425   -0.6265    0.2638 C   0  0  0  0  0  0  0  0  0  0  0  0
    9.5420    0.0084    1.0880 C   0  0  0  0  0  0  0  0  0  0  0  0
    8.9850    1.3129    1.5909 C   0  0  0  0  0  0  0  0  0  0  0  0
    8.1055    1.7656    0.4411 C   0  0  0  0  0  0  0  0  0  0  0  0
   -7.3321    0.6275    1.0107 C   0  0  0  0  0  0  0  0  0  0  0  0
  -10.3616   -0.8198    0.6868 H   0  0  0  0  0  0  0  0  0  0  0  0
   -8.9593   -2.8417    0.6435 H   0  0  0  0  0  0  0  0  0  0  0  0
   -6.4527   -2.6523    0.8393 H   0  0  0  0  0  0  0  0  0  0  0  0
   -4.8571    0.6134    1.7034 H   0  0  0  0  0  0  0  0  0  0  0  0
   -4.5928   -1.1467    1.6760 H   0  0  0  0  0  0  0  0  0  0  0  0
   -4.6408   -0.9078   -0.8232 H   0  0  0  0  0  0  0  0  0  0  0  0
   -2.9866    1.1650    0.4699 H   0  0  0  0  0  0  0  0  0  0  0  0
   -3.1319    0.2503   -2.1919 H   0  0  0  0  0  0  0  0  0  0  0  0
   -1.8925    1.3494   -1.4500 H   0  0  0  0  0  0  0  0  0  0  0  0
   -0.8121   -0.4295   -2.5670 H   0  0  0  0  0  0  0  0  0  0  0  0
   -1.6988   -1.7144   -1.6185 H   0  0  0  0  0  0  0  0  0  0  0  0
   -0.3951   -1.6755    1.1938 H   0  0  0  0  0  0  0  0  0  0  0  0
   -0.5151    0.1455    1.4423 H   0  0  0  0  0  0  0  0  0  0  0  0
   -2.6717   -0.6714    1.8827 H   0  0  0  0  0  0  0  0  0  0  0  0
   -2.6197   -1.8312    0.5589 H   0  0  0  0  0  0  0  0  0  0  0  0
    1.1311   -0.4204   -2.8703 H   0  0  0  0  0  0  0  0  0  0  0  0
    3.4974   -0.0807   -3.0557 H   0  0  0  0  0  0  0  0  0  0  0  0
    3.8391    0.0153    1.1717 H   0  0  0  0  0  0  0  0  0  0  0  0
    1.4737   -0.3217    1.3845 H   0  0  0  0  0  0  0  0  0  0  0  0
    5.8463    0.2599    0.9219 H   0  0  0  0  0  0  0  0  0  0  0  0
    7.8367    0.5938   -1.3542 H   0  0  0  0  0  0  0  0  0  0  0  0
    7.8525   -1.3814    0.8099 H   0  0  0  0  0  0  0  0  0  0  0  0
    8.9717   -1.1771   -0.5559 H   0  0  0  0  0  0  0  0  0  0  0  0
    9.8530   -0.5893    1.9566 H   0  0  0  0  0  0  0  0  0  0  0  0
   10.4450    0.2215    0.4527 H   0  0  0  0  0  0  0  0  0  0  0  0
    8.3741    1.0892    2.4795 H   0  0  0  0  0  0  0  0  0  0  0  0
    9.7878    2.0229    1.8277 H   0  0  0  0  0  0  0  0  0  0  0  0
    7.2774    2.4333    0.7749 H   0  0  0  0  0  0  0  0  0  0  0  0
    8.7371    2.3996   -0.2260 H   0  0  0  0  0  0  0  0  0  0  0  0
   -6.8754    1.6013    1.1130 H   0  0  0  0  0  0  0  0  0  0  0  0
  1  2  1  0
  2  3  1  0
  2  4  1  0
  2  5  1  0
  5  6  2  0
  6  7  1  0
  7  8  2  0
  8  9  1  0
  9 10  1  0
 10 11  1  0
 11 12  1  0
 12 13  1  0
 13 14  1  0
 14 15  1  0
 15 16  1  0
 16 17  1  0
 15 18  1  0
 18 19  2  0
 19 20  1  0
 20 21  2  0
 21 22  1  0
 22 23  2  0
 21 24  1  0
 24 25  2  0
 24 26  1  0
 26 27  1  0
 27 28  1  0
 28 29  1  0
 29 30  1  0
 30 31  1  0
  9 32  2  0
 32  5  1  0
 17 12  1  0
 23 18  1  0
 31 27  1  0
  6 33  1  0
  7 34  1  0
  8 35  1  0
 10 36  1  0
 10 37  1  0
 11 38  1  0
 12 39  1  0
 13 40  1  0
 13 41  1  0
 14 42  1  0
 14 43  1  0
 16 44  1  0
 16 45  1  0
 17 46  1  0
 17 47  1  0
 19 48  1  0
 20 49  1  0
 22 50  1  0
 23 51  1  0
 26 52  1  0
 27 53  1  0
 28 54  1  0
 28 55  1  0
 29 56  1  0
 29 57  1  0
 30 58  1  0
 30 59  1  0
 31 60  1  0
 31 61  1  0
 32 62  1  0
M  END
>  <Batch_No>  (153) 
40605984

>  <EC50_nM>  (153) 
ND

>  <Set>  (153) 
Drug-like

>  <Molecular_Weight>  (153) 
445.5204

>  <ALogP>  (153) 
4.703

$$$$
MMV142383
     RDKit          3D

 40 42  0  0  0  0  0  0  0  0999 V2000
   -5.2698    0.7803   -0.9381 C   0  0  0  0  0  0  0  0  0  0  0  0
   -4.7183   -0.2897   -0.0381 C   0  0  0  0  0  0  0  0  0  0  0  0
   -5.2227   -1.6404   -0.4592 C   0  0  0  0  0  0  0  0  0  0  0  0
   -5.3057   -0.0078    1.3479 C   0  0  0  0  0  0  0  0  0  0  0  0
   -3.2451   -0.2269    0.0818 C   0  0  0  0  0  0  0  0  0  0  0  0
   -2.5257    0.7390   -0.5911 C   0  0  0  0  0  0  0  0  0  0  0  0
   -1.1556    0.7667   -0.4557 C   0  0  0  0  0  0  0  0  0  0  0  0
   -0.5005   -0.1500    0.3363 C   0  0  0  0  0  0  0  0  0  0  0  0
   -1.2539   -1.1110    1.0015 C   0  0  0  0  0  0  0  0  0  0  0  0
   -2.6356   -1.1671    0.8869 C   0  0  0  0  0  0  0  0  0  0  0  0
    0.9497   -0.1638    0.5134 C   0  0  0  0  0  0  0  0  0  0  0  0
    1.5120   -1.0288    1.2543 O   0  0  0  0  0  0  0  0  0  0  0  0
    1.7848    0.7720   -0.1228 N   0  0  0  0  0  0  0  0  0  0  0  0
    3.2014    0.6613    0.1262 C   0  0  0  0  0  0  0  0  0  0  0  0
    4.1486    0.0852   -0.3697 N   0  0  0  0  0  0  0  0  0  0  0  0
    5.3924    0.1256    0.0306 C   0  0  0  0  0  0  0  0  0  0  0  0
    6.5125   -0.5230   -0.5128 C   0  0  0  0  0  0  0  0  0  0  0  0
    7.7373   -0.3417    0.0682 C   0  0  0  0  0  0  0  0  0  0  0  0
    7.9833    0.4423    1.1713 C   0  0  0  0  0  0  0  0  0  0  0  0
    6.8705    1.0898    1.7152 C   0  0  0  0  0  0  0  0  0  0  0  0
    5.6324    0.9056    1.1268 C   0  0  0  0  0  0  0  0  0  0  0  0
    4.0066    1.5461    1.5184 S   0  0  0  0  0  0  0  0  0  0  0  0
   -6.3668    0.7308   -0.8712 H   0  0  0  0  0  0  0  0  0  0  0  0
   -4.8804    0.7306   -1.9689 H   0  0  0  0  0  0  0  0  0  0  0  0
   -4.9832    1.7581   -0.4670 H   0  0  0  0  0  0  0  0  0  0  0  0
   -4.8723   -2.4232    0.2388 H   0  0  0  0  0  0  0  0  0  0  0  0
   -4.9270   -1.8966   -1.4891 H   0  0  0  0  0  0  0  0  0  0  0  0
   -6.3397   -1.5796   -0.4144 H   0  0  0  0  0  0  0  0  0  0  0  0
   -4.7345    0.8935    1.7110 H   0  0  0  0  0  0  0  0  0  0  0  0
   -5.2041   -0.8678    2.0189 H   0  0  0  0  0  0  0  0  0  0  0  0
   -6.3544    0.3727    1.2447 H   0  0  0  0  0  0  0  0  0  0  0  0
   -3.0069    1.4739   -1.2211 H   0  0  0  0  0  0  0  0  0  0  0  0
   -0.6066    1.5120   -0.9756 H   0  0  0  0  0  0  0  0  0  0  0  0
   -0.7578   -1.8436    1.6313 H   0  0  0  0  0  0  0  0  0  0  0  0
   -3.1788   -1.9252    1.4176 H   0  0  0  0  0  0  0  0  0  0  0  0
    1.4200    1.5088   -0.7409 H   0  0  0  0  0  0  0  0  0  0  0  0
    6.4255   -1.1637   -1.3826 H   0  0  0  0  0  0  0  0  0  0  0  0
    8.6048   -0.8530   -0.3646 H   0  0  0  0  0  0  0  0  0  0  0  0
    8.9461    0.5828    1.6253 H   0  0  0  0  0  0  0  0  0  0  0  0
    6.9176    1.7259    2.5677 H   0  0  0  0  0  0  0  0  0  0  0  0
  1  2  1  0
  2  3  1  0
  2  4  1  0
  2  5  1  0
  5  6  2  0
  6  7  1  0
  7  8  2  0
  8  9  1  0
  9 10  2  0
  8 11  1  0
 11 12  2  0
 11 13  1  0
 13 14  1  0
 14 15  2  0
 15 16  1  0
 16 17  2  0
 17 18  1  0
 18 19  2  0
 19 20  1  0
 20 21  2  0
 21 22  1  0
 10  5  1  0
 22 14  1  0
 21 16  1  0
  1 23  1  0
  1 24  1  0
  1 25  1  0
  3 26  1  0
  3 27  1  0
  3 28  1  0
  4 29  1  0
  4 30  1  0
  4 31  1  0
  6 32  1  0
  7 33  1  0
  9 34  1  0
 10 35  1  0
 13 36  1  0
 17 37  1  0
 18 38  1  0
 19 39  1  0
 20 40  1  0
M  END
>  <Batch_No>  (154) 
2043-0379

>  <EC50_nM>  (154) 
ND

>  <Set>  (154) 
Drug-like

>  <Molecular_Weight>  (154) 
310.41332

>  <ALogP>  (154) 
4.64

$$$$
MMV000788
     RDKit          3D

 58 61  0  0  0  0  0  0  0  0999 V2000
    5.2898    2.7696    1.9813 C   0  0  0  0  0  0  0  0  0  0  0  0
    5.5443    1.4490    1.2887 C   0  0  0  0  0  0  0  0  0  0  0  0
    6.5931    0.7100    2.0639 C   0  0  0  0  0  0  0  0  0  0  0  0
    4.3613    0.7122    1.1212 O   0  0  0  0  0  0  0  0  0  0  0  0
    4.1815    0.5794   -0.2444 C   0  0  0  0  0  0  0  0  0  0  0  0
    2.9708   -0.1769   -0.6300 C   0  0  0  0  0  0  0  0  0  0  0  0
    1.8921    0.5437   -1.0957 C   0  0  0  0  0  0  0  0  0  0  0  0
    0.7022   -0.0452   -1.4901 C   0  0  0  0  0  0  0  0  0  0  0  0
   -0.4147    0.8062   -1.9717 C   0  0  0  0  0  0  0  0  0  0  0  0
   -1.4559    1.0447   -1.0615 N   0  0  0  0  0  0  0  0  0  0  0  0
   -2.5544    1.8312   -1.4542 C   0  0  0  0  0  0  0  0  0  0  0  0
   -3.7871    1.6931   -0.6133 C   0  0  0  0  0  0  0  0  0  0  0  0
   -3.9762    0.3826   -0.0541 N   0  0  0  0  0  0  0  0  0  0  0  0
   -2.8978   -0.5814   -0.1482 C   0  0  0  0  0  0  0  0  0  0  0  0
   -1.6183    0.2155    0.0677 C   0  0  0  0  0  0  0  0  0  0  0  0
   -5.2244    0.1043    0.5694 C   0  0  0  0  0  0  0  0  0  0  0  0
   -6.1393    1.1151    0.7113 C   0  0  0  0  0  0  0  0  0  0  0  0
   -7.3886    0.9015    1.3120 C   0  0  0  0  0  0  0  0  0  0  0  0
   -7.7070   -0.3524    1.7710 C   0  0  0  0  0  0  0  0  0  0  0  0
   -6.7770   -1.3540    1.6200 C   0  0  0  0  0  0  0  0  0  0  0  0
   -7.2140   -2.9460    2.2167 Cl  0  0  0  0  0  0  0  0  0  0  0  0
   -5.5426   -1.1746    1.0347 C   0  0  0  0  0  0  0  0  0  0  0  0
    0.6313   -1.4179   -1.3986 C   0  0  0  0  0  0  0  0  0  0  0  0
   -0.5260   -2.0844   -1.7759 O   0  0  0  0  0  0  0  0  0  0  0  0
    1.7056   -2.1807   -0.9306 C   0  0  0  0  0  0  0  0  0  0  0  0
    1.5703   -3.5082   -0.8663 N   0  0  0  0  0  0  0  0  0  0  0  0
    2.6229   -4.2368   -0.4091 C   0  0  0  0  0  0  0  0  0  0  0  0
    3.8041   -3.6438   -0.0180 C   0  0  0  0  0  0  0  0  0  0  0  0
    3.9710   -2.2664   -0.0747 C   0  0  0  0  0  0  0  0  0  0  0  0
    2.8836   -1.5378   -0.5451 C   0  0  0  0  0  0  0  0  0  0  0  0
    6.1321    3.4499    1.7079 H   0  0  0  0  0  0  0  0  0  0  0  0
    4.3498    3.2469    1.6326 H   0  0  0  0  0  0  0  0  0  0  0  0
    5.3151    2.6583    3.0852 H   0  0  0  0  0  0  0  0  0  0  0  0
    5.9893    1.7070    0.2893 H   0  0  0  0  0  0  0  0  0  0  0  0
    7.3990    1.4392    2.3097 H   0  0  0  0  0  0  0  0  0  0  0  0
    6.2055    0.1887    2.9601 H   0  0  0  0  0  0  0  0  0  0  0  0
    7.0837   -0.0374    1.3916 H   0  0  0  0  0  0  0  0  0  0  0  0
    4.1546    1.6140   -0.6492 H   0  0  0  0  0  0  0  0  0  0  0  0
    5.0388    0.0320   -0.6949 H   0  0  0  0  0  0  0  0  0  0  0  0
    1.9490    1.6192   -1.1674 H   0  0  0  0  0  0  0  0  0  0  0  0
   -0.7681    0.4125   -2.9748 H   0  0  0  0  0  0  0  0  0  0  0  0
    0.0224    1.8120   -2.2602 H   0  0  0  0  0  0  0  0  0  0  0  0
   -2.8468    1.5541   -2.4951 H   0  0  0  0  0  0  0  0  0  0  0  0
   -2.2199    2.8950   -1.5175 H   0  0  0  0  0  0  0  0  0  0  0  0
   -4.7121    1.9448   -1.1904 H   0  0  0  0  0  0  0  0  0  0  0  0
   -3.7257    2.4236    0.2171 H   0  0  0  0  0  0  0  0  0  0  0  0
   -2.9691   -0.9873   -1.1916 H   0  0  0  0  0  0  0  0  0  0  0  0
   -2.9764   -1.4367    0.5159 H   0  0  0  0  0  0  0  0  0  0  0  0
   -1.8547    0.8984    0.9398 H   0  0  0  0  0  0  0  0  0  0  0  0
   -0.7531   -0.3733    0.3384 H   0  0  0  0  0  0  0  0  0  0  0  0
   -5.9751    2.1347    0.3811 H   0  0  0  0  0  0  0  0  0  0  0  0
   -8.1025    1.7240    1.4138 H   0  0  0  0  0  0  0  0  0  0  0  0
   -8.6758   -0.5228    2.2378 H   0  0  0  0  0  0  0  0  0  0  0  0
   -4.8675   -1.9929    0.9475 H   0  0  0  0  0  0  0  0  0  0  0  0
   -0.6482   -2.3851   -2.7544 H   0  0  0  0  0  0  0  0  0  0  0  0
    2.4602   -5.3120   -0.3770 H   0  0  0  0  0  0  0  0  0  0  0  0
    4.6070   -4.2805    0.3380 H   0  0  0  0  0  0  0  0  0  0  0  0
    4.8875   -1.7780    0.2265 H   0  0  0  0  0  0  0  0  0  0  0  0
  1  2  1  0
  2  3  1  0
  2  4  1  0
  4  5  1  0
  5  6  1  0
  6  7  2  0
  7  8  1  0
  8  9  1  0
  9 10  1  0
 10 11  1  0
 11 12  1  0
 12 13  1  0
 13 14  1  0
 14 15  1  0
 13 16  1  0
 16 17  2  0
 17 18  1  0
 18 19  2  0
 19 20  1  0
 20 21  1  0
 20 22  2  0
  8 23  2  0
 23 24  1  0
 23 25  1  0
 25 26  2  0
 26 27  1  0
 27 28  2  0
 28 29  1  0
 29 30  2  0
 30  6  1  0
 15 10  1  0
 22 16  1  0
 30 25  1  0
  1 31  1  0
  1 32  1  0
  1 33  1  0
  2 34  1  0
  3 35  1  0
  3 36  1  0
  3 37  1  0
  5 38  1  0
  5 39  1  0
  7 40  1  0
  9 41  1  0
  9 42  1  0
 11 43  1  0
 11 44  1  0
 12 45  1  0
 12 46  1  0
 14 47  1  0
 14 48  1  0
 15 49  1  0
 15 50  1  0
 17 51  1  0
 18 52  1  0
 19 53  1  0
 22 54  1  0
 24 55  1  0
 27 56  1  0
 28 57  1  0
 29 58  1  0
M  END
>  <Batch_No>  (155) 
D014-0054

>  <EC50_nM>  (155) 
697

>  <Set>  (155) 
Drug-like

>  <Molecular_Weight>  (155) 
425.95102

>  <ALogP>  (155) 
4.672

$$$$
MMV000561
     RDKit          3D

 66 68  0  0  0  0  0  0  0  0999 V2000
   -8.4677    1.1513   -0.4800 C   0  0  0  0  0  0  0  0  0  0  0  0
   -7.2592    1.9624   -0.8135 C   0  0  0  0  0  0  0  0  0  0  0  0
   -5.9825    1.3580   -0.3570 C   0  0  0  0  0  0  0  0  0  0  0  0
   -5.6166    0.1493   -0.9252 N   0  0  0  0  0  0  0  0  0  0  0  0
   -6.2790   -1.0631   -0.6930 C   0  0  0  0  0  0  0  0  0  0  0  0
   -6.1751   -1.5781    0.7263 C   0  0  0  0  0  0  0  0  0  0  0  0
   -6.9357   -2.8829    0.8129 C   0  0  0  0  0  0  0  0  0  0  0  0
   -4.3486    0.0357   -1.5550 C   0  0  0  0  0  0  0  0  0  0  0  0
   -3.1155    0.0129   -0.7571 C   0  0  0  0  0  0  0  0  0  0  0  0
   -2.8409    1.1818    0.1024 C   0  0  0  0  0  0  0  0  0  0  0  0
   -1.5415    1.0001    0.7896 N   0  0  0  0  0  0  0  0  0  0  0  0
   -0.3287    0.8772    0.0643 C   0  0  0  0  0  0  0  0  0  0  0  0
   -0.2705    0.9172   -1.1973 O   0  0  0  0  0  0  0  0  0  0  0  0
    0.9177    0.6968    0.7671 C   0  0  0  0  0  0  0  0  0  0  0  0
    2.2066    0.5573    0.3875 C   0  0  0  0  0  0  0  0  0  0  0  0
    3.1618    0.4079    1.3079 C   0  0  0  0  0  0  0  0  0  0  0  0
    4.5562    0.2419    1.3986 C   0  0  0  0  0  0  0  0  0  0  0  0
    4.9187    0.1514    2.6867 N   0  0  0  0  0  0  0  0  0  0  0  0
    3.8514    0.2472    3.4471 N   0  0  0  0  0  0  0  0  0  0  0  0
    3.7949    0.1984    4.8952 C   0  0  0  0  0  0  0  0  0  0  0  0
    2.7778    0.4028    2.6385 C   0  0  0  0  0  0  0  0  0  0  0  0
    0.9876    0.6160    2.6515 S   0  0  0  0  0  0  0  0  0  0  0  0
    5.5208    0.1800    0.3065 C   0  0  0  0  0  0  0  0  0  0  0  0
    5.3400    1.1050   -0.7166 C   0  0  0  0  0  0  0  0  0  0  0  0
    6.1834    1.1621   -1.8145 C   0  0  0  0  0  0  0  0  0  0  0  0
    7.2211    0.2503   -1.8466 C   0  0  0  0  0  0  0  0  0  0  0  0
    8.0985    0.2749   -2.9440 O   0  0  0  0  0  0  0  0  0  0  0  0
    7.8347    1.2515   -3.9412 C   0  0  0  0  0  0  0  0  0  0  0  0
    7.4060   -0.6772   -0.8246 C   0  0  0  0  0  0  0  0  0  0  0  0
    8.4828   -1.5390   -0.9694 O   0  0  0  0  0  0  0  0  0  0  0  0
    8.7574   -2.5147    0.0165 C   0  0  0  0  0  0  0  0  0  0  0  0
    6.5578   -0.7230    0.2638 C   0  0  0  0  0  0  0  0  0  0  0  0
   -8.3071    0.4491    0.3596 H   0  0  0  0  0  0  0  0  0  0  0  0
   -8.8075    0.6118   -1.3640 H   0  0  0  0  0  0  0  0  0  0  0  0
   -9.2962    1.8595   -0.1485 H   0  0  0  0  0  0  0  0  0  0  0  0
   -7.3845    2.9966   -0.3829 H   0  0  0  0  0  0  0  0  0  0  0  0
   -7.1996    2.1646   -1.9259 H   0  0  0  0  0  0  0  0  0  0  0  0
   -5.1745    2.1226   -0.6312 H   0  0  0  0  0  0  0  0  0  0  0  0
   -5.9604    1.3793    0.7698 H   0  0  0  0  0  0  0  0  0  0  0  0
   -7.3137   -1.0654   -1.0053 H   0  0  0  0  0  0  0  0  0  0  0  0
   -5.7945   -1.8324   -1.3914 H   0  0  0  0  0  0  0  0  0  0  0  0
   -6.6237   -0.8701    1.4451 H   0  0  0  0  0  0  0  0  0  0  0  0
   -5.1303   -1.8039    1.0153 H   0  0  0  0  0  0  0  0  0  0  0  0
   -7.9098   -2.8629    0.2800 H   0  0  0  0  0  0  0  0  0  0  0  0
   -7.2233   -3.1071    1.8820 H   0  0  0  0  0  0  0  0  0  0  0  0
   -6.3050   -3.7163    0.4656 H   0  0  0  0  0  0  0  0  0  0  0  0
   -4.3811   -0.8347   -2.2812 H   0  0  0  0  0  0  0  0  0  0  0  0
   -4.2783    0.9200   -2.2666 H   0  0  0  0  0  0  0  0  0  0  0  0
   -3.0123   -0.9017   -0.1135 H   0  0  0  0  0  0  0  0  0  0  0  0
   -2.2625   -0.1281   -1.4958 H   0  0  0  0  0  0  0  0  0  0  0  0
   -2.7966    2.1152   -0.4734 H   0  0  0  0  0  0  0  0  0  0  0  0
   -3.6235    1.3004    0.8828 H   0  0  0  0  0  0  0  0  0  0  0  0
   -1.5212    0.9621    1.8362 H   0  0  0  0  0  0  0  0  0  0  0  0
    2.4417    0.5712   -0.7137 H   0  0  0  0  0  0  0  0  0  0  0  0
    3.8724    1.1802    5.3824 H   0  0  0  0  0  0  0  0  0  0  0  0
    4.6635   -0.4343    5.2058 H   0  0  0  0  0  0  0  0  0  0  0  0
    2.8598   -0.3429    5.1543 H   0  0  0  0  0  0  0  0  0  0  0  0
    4.5189    1.8225   -0.6845 H   0  0  0  0  0  0  0  0  0  0  0  0
    5.9974    1.8950   -2.5738 H   0  0  0  0  0  0  0  0  0  0  0  0
    7.7871    2.2829   -3.4874 H   0  0  0  0  0  0  0  0  0  0  0  0
    8.6274    1.3015   -4.6987 H   0  0  0  0  0  0  0  0  0  0  0  0
    6.8210    1.0715   -4.3633 H   0  0  0  0  0  0  0  0  0  0  0  0
    9.8303   -2.8423   -0.0305 H   0  0  0  0  0  0  0  0  0  0  0  0
    8.1781   -3.4471   -0.1851 H   0  0  0  0  0  0  0  0  0  0  0  0
    8.5991   -2.1591    1.0516 H   0  0  0  0  0  0  0  0  0  0  0  0
    6.6953   -1.4405    1.0590 H   0  0  0  0  0  0  0  0  0  0  0  0
  1  2  1  0
  2  3  1  0
  3  4  1  0
  4  5  1  0
  5  6  1  0
  6  7  1  0
  4  8  1  0
  8  9  1  0
  9 10  1  0
 10 11  1  0
 11 12  1  0
 12 13  2  0
 12 14  1  0
 14 15  2  0
 15 16  1  0
 16 17  1  0
 17 18  2  0
 18 19  1  0
 19 20  1  0
 19 21  1  0
 21 22  1  0
 17 23  1  0
 23 24  2  0
 24 25  1  0
 25 26  2  0
 26 27  1  0
 27 28  1  0
 26 29  1  0
 29 30  1  0
 30 31  1  0
 29 32  2  0
 22 14  1  0
 21 16  2  0
 32 23  1  0
  1 33  1  0
  1 34  1  0
  1 35  1  0
  2 36  1  0
  2 37  1  0
  3 38  1  0
  3 39  1  0
  5 40  1  0
  5 41  1  0
  6 42  1  0
  6 43  1  0
  7 44  1  0
  7 45  1  0
  7 46  1  0
  8 47  1  0
  8 48  1  0
  9 49  1  0
  9 50  1  0
 10 51  1  0
 10 52  1  0
 11 53  1  0
 15 54  1  0
 20 55  1  0
 20 56  1  0
 20 57  1  0
 24 58  1  0
 25 59  1  0
 28 60  1  0
 28 61  1  0
 28 62  1  0
 31 63  1  0
 31 64  1  0
 31 65  1  0
 32 66  1  0
M  END
>  <Batch_No>  (156) 
C453-0352

>  <EC50_nM>  (156) 
1430

>  <Set>  (156) 
Drug-like

>  <Molecular_Weight>  (156) 
458.61675

>  <ALogP>  (156) 
4.579

$$$$
MMV000248
     RDKit          3D

 54 56  0  0  0  0  0  0  0  0999 V2000
   -4.2053    2.6362    0.0402 C   0  0  0  0  0  0  0  0  0  0  0  0
   -4.8565    1.3108   -0.2696 C   0  0  0  0  0  0  0  0  0  0  0  0
   -4.3875    0.2417    0.5451 N   0  0  0  0  0  0  0  0  0  0  0  0
   -5.0457   -0.9877    0.1959 C   0  0  0  0  0  0  0  0  0  0  0  0
   -6.4876   -0.9315    0.5786 C   0  0  0  0  0  0  0  0  0  0  0  0
   -2.9715    0.1246    0.6775 C   0  0  0  0  0  0  0  0  0  0  0  0
   -2.4150   -0.2836   -0.6645 C   0  0  0  0  0  0  0  0  0  0  0  0
   -0.9792   -0.4645   -0.6746 N   0  0  0  0  0  0  0  0  0  0  0  0
    0.0217    0.3662   -0.9261 C   0  0  0  0  0  0  0  0  0  0  0  0
   -0.1200    1.6084   -1.2336 N   0  0  0  0  0  0  0  0  0  0  0  0
    1.1945   -0.2779   -0.8096 N   0  0  0  0  0  0  0  0  0  0  0  0
    2.5511    0.1952   -0.9858 C   0  0  0  0  0  0  0  0  0  0  0  0
    3.1670    0.7235    0.2864 C   0  0  0  0  0  0  0  0  0  0  0  0
    2.4422    1.7867    0.7712 O   0  0  0  0  0  0  0  0  0  0  0  0
    4.5989    1.0590    0.0881 C   0  0  0  0  0  0  0  0  0  0  0  0
    5.5660    0.1502    0.4859 C   0  0  0  0  0  0  0  0  0  0  0  0
    6.9162    0.3702    0.3518 C   0  0  0  0  0  0  0  0  0  0  0  0
    7.3520    1.5493   -0.2050 C   0  0  0  0  0  0  0  0  0  0  0  0
    9.0673    1.8506   -0.3868 Cl  0  0  0  0  0  0  0  0  0  0  0  0
    6.4075    2.4758   -0.6115 C   0  0  0  0  0  0  0  0  0  0  0  0
    7.0160    3.9619   -1.3139 Cl  0  0  0  0  0  0  0  0  0  0  0  0
    5.0376    2.2418   -0.4701 C   0  0  0  0  0  0  0  0  0  0  0  0
    0.9397   -1.5764   -0.4689 C   0  0  0  0  0  0  0  0  0  0  0  0
    1.7221   -2.6777   -0.2180 C   0  0  0  0  0  0  0  0  0  0  0  0
    1.1898   -3.9061    0.1181 C   0  0  0  0  0  0  0  0  0  0  0  0
   -0.1707   -4.0164    0.2003 C   0  0  0  0  0  0  0  0  0  0  0  0
   -0.9689   -2.9115   -0.0512 C   0  0  0  0  0  0  0  0  0  0  0  0
   -0.4126   -1.6765   -0.3893 C   0  0  0  0  0  0  0  0  0  0  0  0
   -4.8786    3.4921   -0.2639 H   0  0  0  0  0  0  0  0  0  0  0  0
   -3.2805    2.7901   -0.5473 H   0  0  0  0  0  0  0  0  0  0  0  0
   -4.0366    2.7498    1.1207 H   0  0  0  0  0  0  0  0  0  0  0  0
   -5.9379    1.4581   -0.1445 H   0  0  0  0  0  0  0  0  0  0  0  0
   -4.7185    1.0294   -1.3411 H   0  0  0  0  0  0  0  0  0  0  0  0
   -5.0227   -1.1698   -0.9156 H   0  0  0  0  0  0  0  0  0  0  0  0
   -4.5545   -1.8037    0.7518 H   0  0  0  0  0  0  0  0  0  0  0  0
   -7.1836   -1.1133   -0.2810 H   0  0  0  0  0  0  0  0  0  0  0  0
   -6.7311   -1.7837    1.2799 H   0  0  0  0  0  0  0  0  0  0  0  0
   -6.7533   -0.0293    1.1661 H   0  0  0  0  0  0  0  0  0  0  0  0
   -2.5800    1.1206    0.9460 H   0  0  0  0  0  0  0  0  0  0  0  0
   -2.7415   -0.5915    1.4704 H   0  0  0  0  0  0  0  0  0  0  0  0
   -2.6965    0.5176   -1.3830 H   0  0  0  0  0  0  0  0  0  0  0  0
   -2.8851   -1.2376   -0.9646 H   0  0  0  0  0  0  0  0  0  0  0  0
    0.6550    2.2671   -1.4325 H   0  0  0  0  0  0  0  0  0  0  0  0
    2.6340    0.9679   -1.7718 H   0  0  0  0  0  0  0  0  0  0  0  0
    3.2297   -0.6371   -1.3188 H   0  0  0  0  0  0  0  0  0  0  0  0
    3.1237   -0.0757    1.0915 H   0  0  0  0  0  0  0  0  0  0  0  0
    3.0088    2.6106    0.7237 H   0  0  0  0  0  0  0  0  0  0  0  0
    5.2678   -0.8060    0.9368 H   0  0  0  0  0  0  0  0  0  0  0  0
    7.6299   -0.3951    0.6883 H   0  0  0  0  0  0  0  0  0  0  0  0
    4.3189    2.9784   -0.7938 H   0  0  0  0  0  0  0  0  0  0  0  0
    2.8103   -2.5768   -0.2880 H   0  0  0  0  0  0  0  0  0  0  0  0
    1.8456   -4.7177    0.3008 H   0  0  0  0  0  0  0  0  0  0  0  0
   -0.6355   -4.9520    0.4592 H   0  0  0  0  0  0  0  0  0  0  0  0
   -2.0572   -3.0349    0.0237 H   0  0  0  0  0  0  0  0  0  0  0  0
  1  2  1  0
  2  3  1  0
  3  4  1  0
  4  5  1  0
  3  6  1  0
  6  7  1  0
  7  8  1  0
  8  9  1  0
  9 10  2  3
  9 11  1  0
 11 12  1  0
 12 13  1  0
 13 14  1  0
 13 15  1  0
 15 16  2  0
 16 17  1  0
 17 18  2  0
 18 19  1  0
 18 20  1  0
 20 21  1  0
 20 22  2  0
 11 23  1  0
 23 24  2  0
 24 25  1  0
 25 26  2  0
 26 27  1  0
 27 28  2  0
 28  8  1  0
 22 15  1  0
 28 23  1  0
  1 29  1  0
  1 30  1  0
  1 31  1  0
  2 32  1  0
  2 33  1  0
  4 34  1  0
  4 35  1  0
  5 36  1  0
  5 37  1  0
  5 38  1  0
  6 39  1  0
  6 40  1  0
  7 41  1  0
  7 42  1  0
 10 43  1  0
 12 44  1  0
 12 45  1  0
 13 46  1  0
 14 47  1  0
 16 48  1  0
 17 49  1  0
 22 50  1  0
 24 51  1  0
 25 52  1  0
 26 53  1  0
 27 54  1  0
M  END
>  <Batch_No>  (157) 
STK529061

>  <EC50_nM>  (157) 
718.5

>  <Set>  (157) 
Drug-like

>  <Molecular_Weight>  (157) 
421.36334

>  <ALogP>  (157) 
4.397

$$$$
MMV665879
     RDKit          3D

 55 58  0  0  0  0  0  0  0  0999 V2000
   -7.7837    0.5063    1.5043 C   0  0  0  0  0  0  0  0  0  0  0  0
   -7.2092    1.2935    0.3592 C   0  0  0  0  0  0  0  0  0  0  0  0
   -7.8677    0.9002   -0.9646 C   0  0  0  0  0  0  0  0  0  0  0  0
   -7.4201    2.7852    0.5151 C   0  0  0  0  0  0  0  0  0  0  0  0
   -5.7467    1.0501    0.3243 C   0  0  0  0  0  0  0  0  0  0  0  0
   -4.8998    1.9932    0.4493 O   0  0  0  0  0  0  0  0  0  0  0  0
   -5.2950   -0.2895    0.1441 N   0  0  0  0  0  0  0  0  0  0  0  0
   -3.9072   -0.6072    0.0994 C   0  0  0  0  0  0  0  0  0  0  0  0
   -3.2178   -0.6082   -1.0961 C   0  0  0  0  0  0  0  0  0  0  0  0
   -1.8600   -0.9205   -1.1284 C   0  0  0  0  0  0  0  0  0  0  0  0
   -1.1890   -1.2300    0.0177 C   0  0  0  0  0  0  0  0  0  0  0  0
   -1.9013   -1.2229    1.2074 C   0  0  0  0  0  0  0  0  0  0  0  0
   -3.2448   -0.9169    1.2622 C   0  0  0  0  0  0  0  0  0  0  0  0
    0.2276   -1.5685    0.0796 C   0  0  0  0  0  0  0  0  0  0  0  0
    0.8054   -1.8501    1.1785 O   0  0  0  0  0  0  0  0  0  0  0  0
    1.0470   -1.6048   -1.0779 N   0  0  0  0  0  0  0  0  0  0  0  0
    2.4257   -1.9506   -0.8949 C   0  0  0  0  0  0  0  0  0  0  0  0
    2.7491   -3.3072   -0.9758 C   0  0  0  0  0  0  0  0  0  0  0  0
    4.0650   -3.7314   -0.8103 C   0  0  0  0  0  0  0  0  0  0  0  0
    5.0237   -2.7619   -0.5656 C   0  0  0  0  0  0  0  0  0  0  0  0
    4.6807   -1.4076   -0.4881 C   0  0  0  0  0  0  0  0  0  0  0  0
    3.3899   -0.9925   -0.6505 C   0  0  0  0  0  0  0  0  0  0  0  0
    5.7248   -0.4102   -0.2274 C   0  0  0  0  0  0  0  0  0  0  0  0
    7.0393   -0.6838   -0.0477 N   0  0  0  0  0  0  0  0  0  0  0  0
    7.7040    0.4770    0.1692 C   0  0  0  0  0  0  0  0  0  0  0  0
    9.0455    0.7327    0.4045 C   0  0  0  0  0  0  0  0  0  0  0  0
    9.4597    2.0398    0.5964 C   0  0  0  0  0  0  0  0  0  0  0  0
    8.5390    3.0806    0.5530 C   0  0  0  0  0  0  0  0  0  0  0  0
    7.1980    2.8141    0.3168 C   0  0  0  0  0  0  0  0  0  0  0  0
    6.7769    1.5004    0.1232 C   0  0  0  0  0  0  0  0  0  0  0  0
    5.5869    0.9331   -0.1186 N   0  0  0  0  0  0  0  0  0  0  0  0
   -8.3027    1.1470    2.2490 H   0  0  0  0  0  0  0  0  0  0  0  0
   -6.9816   -0.0102    2.1033 H   0  0  0  0  0  0  0  0  0  0  0  0
   -8.4728   -0.2719    1.1348 H   0  0  0  0  0  0  0  0  0  0  0  0
   -8.5167    1.6957   -1.3645 H   0  0  0  0  0  0  0  0  0  0  0  0
   -7.0361    0.7738   -1.6891 H   0  0  0  0  0  0  0  0  0  0  0  0
   -8.3597   -0.0976   -0.8921 H   0  0  0  0  0  0  0  0  0  0  0  0
   -6.6337    3.2796   -0.1246 H   0  0  0  0  0  0  0  0  0  0  0  0
   -7.3288    3.1062    1.5733 H   0  0  0  0  0  0  0  0  0  0  0  0
   -8.4213    3.0193    0.0803 H   0  0  0  0  0  0  0  0  0  0  0  0
   -6.0064   -1.0731    0.0403 H   0  0  0  0  0  0  0  0  0  0  0  0
   -3.7566   -0.3616   -2.0016 H   0  0  0  0  0  0  0  0  0  0  0  0
   -1.3256   -0.9195   -2.0683 H   0  0  0  0  0  0  0  0  0  0  0  0
   -1.3998   -1.4662    2.1541 H   0  0  0  0  0  0  0  0  0  0  0  0
   -3.7391   -0.9309    2.2299 H   0  0  0  0  0  0  0  0  0  0  0  0
    0.6593   -1.3882   -2.0218 H   0  0  0  0  0  0  0  0  0  0  0  0
    1.9917   -4.0645   -1.1683 H   0  0  0  0  0  0  0  0  0  0  0  0
    4.3311   -4.7790   -0.8702 H   0  0  0  0  0  0  0  0  0  0  0  0
    6.0584   -3.0155   -0.4277 H   0  0  0  0  0  0  0  0  0  0  0  0
    3.0819    0.0414   -0.5986 H   0  0  0  0  0  0  0  0  0  0  0  0
    9.7390   -0.1074    0.4317 H   0  0  0  0  0  0  0  0  0  0  0  0
   10.4981    2.2562    0.7803 H   0  0  0  0  0  0  0  0  0  0  0  0
    8.8551    4.1114    0.7027 H   0  0  0  0  0  0  0  0  0  0  0  0
    6.4405    3.5661    0.2710 H   0  0  0  0  0  0  0  0  0  0  0  0
    4.6802    1.4466   -0.2109 H   0  0  0  0  0  0  0  0  0  0  0  0
  1  2  1  0
  2  3  1  0
  2  4  1  0
  2  5  1  0
  5  6  2  0
  5  7  1  0
  7  8  1  0
  8  9  2  0
  9 10  1  0
 10 11  2  0
 11 12  1  0
 12 13  2  0
 11 14  1  0
 14 15  2  0
 14 16  1  0
 16 17  1  0
 17 18  2  0
 18 19  1  0
 19 20  2  0
 20 21  1  0
 21 22  2  0
 21 23  1  0
 23 24  2  0
 24 25  1  0
 25 26  2  0
 26 27  1  0
 27 28  2  0
 28 29  1  0
 29 30  2  0
 30 31  1  0
 13  8  1  0
 22 17  1  0
 31 23  1  0
 30 25  1  0
  1 32  1  0
  1 33  1  0
  1 34  1  0
  3 35  1  0
  3 36  1  0
  3 37  1  0
  4 38  1  0
  4 39  1  0
  4 40  1  0
  7 41  1  0
  9 42  1  0
 10 43  1  0
 12 44  1  0
 13 45  1  0
 16 46  1  0
 18 47  1  0
 19 48  1  0
 20 49  1  0
 22 50  1  0
 26 51  1  0
 27 52  1  0
 28 53  1  0
 29 54  1  0
 31 55  1  0
M  END
>  <Batch_No>  (158) 
OSSK_331037

>  <EC50_nM>  (158) 
ND

>  <Set>  (158) 
Drug-like

>  <Molecular_Weight>  (158) 
412.48366

>  <ALogP>  (158) 
4.721

$$$$
MMV665890
     RDKit          3D

 42 44  0  0  0  0  0  0  0  0999 V2000
   -4.1534    1.6540    2.5821 C   0  0  0  0  0  0  0  0  0  0  0  0
   -4.2892    1.3255    1.2296 O   0  0  0  0  0  0  0  0  0  0  0  0
   -3.3983    0.5066    0.5401 C   0  0  0  0  0  0  0  0  0  0  0  0
   -2.2893   -0.0623    1.1307 C   0  0  0  0  0  0  0  0  0  0  0  0
   -1.4540   -0.8630    0.3783 C   0  0  0  0  0  0  0  0  0  0  0  0
   -1.6634   -1.1348   -0.9529 C   0  0  0  0  0  0  0  0  0  0  0  0
   -2.7942   -0.5471   -1.5298 C   0  0  0  0  0  0  0  0  0  0  0  0
   -3.6458    0.2591   -0.7953 C   0  0  0  0  0  0  0  0  0  0  0  0
   -4.7621    0.8305   -1.3934 O   0  0  0  0  0  0  0  0  0  0  0  0
   -4.9989    0.5683   -2.7531 C   0  0  0  0  0  0  0  0  0  0  0  0
   -0.7996   -1.9696   -1.7679 C   0  0  0  0  0  0  0  0  0  0  0  0
   -1.2690   -2.9343   -2.6077 N   0  0  0  0  0  0  0  0  0  0  0  0
   -0.2490   -3.4895   -3.1926 O   0  0  0  0  0  0  0  0  0  0  0  0
    0.8528   -2.9535   -2.7921 N   0  0  0  0  0  0  0  0  0  0  0  0
    0.5695   -1.9899   -1.8940 C   0  0  0  0  0  0  0  0  0  0  0  0
    1.5050   -1.1594   -1.2233 N   0  0  0  0  0  0  0  0  0  0  0  0
    2.1238   -1.4949    0.0080 C   0  0  0  0  0  0  0  0  0  0  0  0
    1.8519   -2.5875    0.5708 O   0  0  0  0  0  0  0  0  0  0  0  0
    3.0825   -0.6241    0.6776 C   0  0  0  0  0  0  0  0  0  0  0  0
    3.6216   -1.0516    1.8707 C   0  0  0  0  0  0  0  0  0  0  0  0
    4.5451   -0.2570    2.5551 C   0  0  0  0  0  0  0  0  0  0  0  0
    4.9172    0.9678    2.0256 C   0  0  0  0  0  0  0  0  0  0  0  0
    4.3879    1.4147    0.8300 C   0  0  0  0  0  0  0  0  0  0  0  0
    4.7911    2.7398    0.2579 C   0  0  0  0  0  0  0  0  0  0  0  0
    3.4762    0.5973    0.1836 C   0  0  0  0  0  0  0  0  0  0  0  0
   -3.0964    1.7520    2.8691 H   0  0  0  0  0  0  0  0  0  0  0  0
   -4.6331    0.8261    3.1600 H   0  0  0  0  0  0  0  0  0  0  0  0
   -4.7015    2.5888    2.8120 H   0  0  0  0  0  0  0  0  0  0  0  0
   -2.0826    0.1226    2.1758 H   0  0  0  0  0  0  0  0  0  0  0  0
   -0.6040   -1.2863    0.8842 H   0  0  0  0  0  0  0  0  0  0  0  0
   -3.0088   -0.7262   -2.5740 H   0  0  0  0  0  0  0  0  0  0  0  0
   -4.2204    1.0196   -3.4185 H   0  0  0  0  0  0  0  0  0  0  0  0
   -5.9726    1.0609   -3.0051 H   0  0  0  0  0  0  0  0  0  0  0  0
   -5.1437   -0.4977   -2.9920 H   0  0  0  0  0  0  0  0  0  0  0  0
    1.7306   -0.2470   -1.6955 H   0  0  0  0  0  0  0  0  0  0  0  0
    3.3822   -1.9887    2.3441 H   0  0  0  0  0  0  0  0  0  0  0  0
    4.9835   -0.5761    3.5001 H   0  0  0  0  0  0  0  0  0  0  0  0
    5.6272    1.6255    2.5102 H   0  0  0  0  0  0  0  0  0  0  0  0
    5.8689    2.7174   -0.0288 H   0  0  0  0  0  0  0  0  0  0  0  0
    4.6259    3.5791    0.9420 H   0  0  0  0  0  0  0  0  0  0  0  0
    4.2119    2.8808   -0.6835 H   0  0  0  0  0  0  0  0  0  0  0  0
    3.0744    0.9521   -0.7379 H   0  0  0  0  0  0  0  0  0  0  0  0
  1  2  1  0
  2  3  1  0
  3  4  2  0
  4  5  1  0
  5  6  2  0
  6  7  1  0
  7  8  2  0
  8  9  1  0
  9 10  1  0
  6 11  1  0
 11 12  2  0
 12 13  1  0
 13 14  1  0
 14 15  2  0
 15 16  1  0
 16 17  1  0
 17 18  2  0
 17 19  1  0
 19 20  2  0
 20 21  1  0
 21 22  2  0
 22 23  1  0
 23 24  1  0
 23 25  2  0
  8  3  1  0
 15 11  1  0
 25 19  1  0
  1 26  1  0
  1 27  1  0
  1 28  1  0
  4 29  1  0
  5 30  1  0
  7 31  1  0
 10 32  1  0
 10 33  1  0
 10 34  1  0
 16 35  1  0
 20 36  1  0
 21 37  1  0
 22 38  1  0
 24 39  1  0
 24 40  1  0
 24 41  1  0
 25 42  1  0
M  END
>  <Batch_No>  (159) 
OSSK_646508

>  <EC50_nM>  (159) 
ND

>  <Set>  (159) 
Drug-like

>  <Molecular_Weight>  (159) 
339.34528

>  <ALogP>  (159) 
3.358

$$$$
MMV666116
     RDKit          3D

 53 56  0  0  0  0  0  0  0  0999 V2000
   -4.2570    1.8661    1.8945 O   0  0  0  0  0  0  0  0  0  0  0  0
   -5.0685    1.1313    1.0228 C   0  0  0  0  0  0  0  0  0  0  0  0
   -6.2217    1.7295    0.5412 C   0  0  0  0  0  0  0  0  0  0  0  0
   -7.0419    1.0087   -0.3295 C   0  0  0  0  0  0  0  0  0  0  0  0
   -6.6722   -0.2727   -0.6775 C   0  0  0  0  0  0  0  0  0  0  0  0
   -5.5283   -0.8861   -0.2082 C   0  0  0  0  0  0  0  0  0  0  0  0
   -4.7225   -0.1622    0.6545 C   0  0  0  0  0  0  0  0  0  0  0  0
   -3.4675   -0.6991    1.2339 C   0  0  0  0  0  0  0  0  0  0  0  0
   -2.2940   -0.1608    0.6143 N   0  0  0  0  0  0  0  0  0  0  0  0
   -2.1665   -0.3996   -0.7848 C   0  0  0  0  0  0  0  0  0  0  0  0
   -0.7737   -0.9486   -1.0215 C   0  0  0  0  0  0  0  0  0  0  0  0
   -0.0427   -0.4100    0.2000 C   0  0  0  0  0  0  0  0  0  0  0  0
    0.1884    1.0772    0.0211 C   0  0  0  0  0  0  0  0  0  0  0  0
    1.1050    1.3480   -1.1273 C   0  0  0  0  0  0  0  0  0  0  0  0
    2.2762    0.3698   -1.0651 C   0  0  0  0  0  0  0  0  0  0  0  0
    2.3629   -0.1967    0.2405 N   0  0  0  0  0  0  0  0  0  0  0  0
    3.5973   -0.9154    0.4215 C   0  0  0  0  0  0  0  0  0  0  0  0
    4.8138   -0.1988    0.0577 C   0  0  0  0  0  0  0  0  0  0  0  0
    5.4727    0.5205    1.0533 C   0  0  0  0  0  0  0  0  0  0  0  0
    6.6143    1.2584    0.7896 C   0  0  0  0  0  0  0  0  0  0  0  0
    7.1306    1.2952   -0.4940 C   0  0  0  0  0  0  0  0  0  0  0  0
    6.4802    0.5837   -1.4790 C   0  0  0  0  0  0  0  0  0  0  0  0
    5.3442   -0.1566   -1.2366 C   0  0  0  0  0  0  0  0  0  0  0  0
    4.7876   -0.8540   -2.2560 F   0  0  0  0  0  0  0  0  0  0  0  0
    1.2424   -1.1082    0.4508 C   0  0  0  0  0  0  0  0  0  0  0  0
   -1.0903   -0.5798    1.2741 C   0  0  0  0  0  0  0  0  0  0  0  0
   -4.1279    1.4182    2.8148 H   0  0  0  0  0  0  0  0  0  0  0  0
   -6.4668    2.7380    0.8507 H   0  0  0  0  0  0  0  0  0  0  0  0
   -7.9602    1.4552   -0.7257 H   0  0  0  0  0  0  0  0  0  0  0  0
   -7.3127   -0.8473   -1.3618 H   0  0  0  0  0  0  0  0  0  0  0  0
   -5.2336   -1.8901   -0.4787 H   0  0  0  0  0  0  0  0  0  0  0  0
   -3.5483   -1.8072    1.1900 H   0  0  0  0  0  0  0  0  0  0  0  0
   -3.4402   -0.4367    2.3091 H   0  0  0  0  0  0  0  0  0  0  0  0
   -2.8613   -1.1517   -1.2086 H   0  0  0  0  0  0  0  0  0  0  0  0
   -2.2178    0.5741   -1.3038 H   0  0  0  0  0  0  0  0  0  0  0  0
   -0.8011   -2.0543   -0.9701 H   0  0  0  0  0  0  0  0  0  0  0  0
   -0.3805   -0.5610   -1.9724 H   0  0  0  0  0  0  0  0  0  0  0  0
   -0.8285    1.5229   -0.1164 H   0  0  0  0  0  0  0  0  0  0  0  0
    0.6550    1.4486    0.9543 H   0  0  0  0  0  0  0  0  0  0  0  0
    0.6204    1.2117   -2.0954 H   0  0  0  0  0  0  0  0  0  0  0  0
    1.4996    2.4003   -1.0538 H   0  0  0  0  0  0  0  0  0  0  0  0
    2.1824   -0.4121   -1.8381 H   0  0  0  0  0  0  0  0  0  0  0  0
    3.2084    0.9592   -1.3143 H   0  0  0  0  0  0  0  0  0  0  0  0
    3.6528   -1.3896    1.4320 H   0  0  0  0  0  0  0  0  0  0  0  0
    3.5268   -1.8025   -0.2808 H   0  0  0  0  0  0  0  0  0  0  0  0
    5.1182    0.5336    2.0803 H   0  0  0  0  0  0  0  0  0  0  0  0
    7.1366    1.8237    1.5601 H   0  0  0  0  0  0  0  0  0  0  0  0
    8.0134    1.8502   -0.7734 H   0  0  0  0  0  0  0  0  0  0  0  0
    6.8774    0.6024   -2.5010 H   0  0  0  0  0  0  0  0  0  0  0  0
    1.2264   -1.4722    1.4998 H   0  0  0  0  0  0  0  0  0  0  0  0
    1.3995   -1.9980   -0.1892 H   0  0  0  0  0  0  0  0  0  0  0  0
   -1.1457   -1.6605    1.5231 H   0  0  0  0  0  0  0  0  0  0  0  0
   -0.8609    0.0299    2.1791 H   0  0  0  0  0  0  0  0  0  0  0  0
  1  2  1  0
  2  3  2  0
  3  4  1  0
  4  5  2  0
  5  6  1  0
  6  7  2  0
  7  8  1  0
  8  9  1  0
  9 10  1  0
 10 11  1  0
 11 12  1  0
 12 13  1  0
 13 14  1  0
 14 15  1  0
 15 16  1  0
 16 17  1  0
 17 18  1  0
 18 19  2  0
 19 20  1  0
 20 21  2  0
 21 22  1  0
 22 23  2  0
 23 24  1  0
 16 25  1  0
 12 26  1  0
  7  2  1  0
 26  9  1  0
 25 12  1  0
 23 18  1  0
  1 27  1  0
  3 28  1  0
  4 29  1  0
  5 30  1  0
  6 31  1  0
  8 32  1  0
  8 33  1  0
 10 34  1  0
 10 35  1  0
 11 36  1  0
 11 37  1  0
 13 38  1  0
 13 39  1  0
 14 40  1  0
 14 41  1  0
 15 42  1  0
 15 43  1  0
 17 44  1  0
 17 45  1  0
 19 46  1  0
 20 47  1  0
 21 48  1  0
 22 49  1  0
 25 50  1  0
 25 51  1  0
 26 52  1  0
 26 53  1  0
M  END
>  <Batch_No>  (160) 
46986671-1

>  <EC50_nM>  (160) 
548

>  <Set>  (160) 
Drug-like

>  <Molecular_Weight>  (160) 
354.46098

>  <ALogP>  (160) 
4.136

$$$$
MMV006913
     RDKit          3D

 28 29  0  0  0  0  0  0  0  0999 V2000
    1.6691    1.7311   -1.6302 C   0  0  0  0  0  0  0  0  0  0  0  0
    0.5524    0.9770   -0.9936 C   0  0  0  0  0  0  0  0  0  0  0  0
   -0.7016    1.4606   -1.0025 N   0  0  0  0  0  0  0  0  0  0  0  0
   -1.7567    0.8362   -0.4484 C   0  0  0  0  0  0  0  0  0  0  0  0
   -2.9994    1.4364   -0.5236 C   0  0  0  0  0  0  0  0  0  0  0  0
   -4.0528    0.7864    0.0435 C   0  0  0  0  0  0  0  0  0  0  0  0
   -3.8906   -0.4477    0.6825 C   0  0  0  0  0  0  0  0  0  0  0  0
   -2.6157   -1.0176    0.7347 C   0  0  0  0  0  0  0  0  0  0  0  0
   -1.5269   -0.3687    0.1611 C   0  0  0  0  0  0  0  0  0  0  0  0
   -0.2514   -0.9018    0.1926 C   0  0  0  0  0  0  0  0  0  0  0  0
   -0.0338   -2.1249    0.8144 O   0  0  0  0  0  0  0  0  0  0  0  0
    0.8338   -0.2488   -0.3834 C   0  0  0  0  0  0  0  0  0  0  0  0
    2.1764   -0.8214   -0.3445 C   0  0  0  0  0  0  0  0  0  0  0  0
    3.1160   -0.2374    0.6063 C   0  0  0  0  0  0  0  0  0  0  0  0
    3.6883   -0.9337    1.5844 C   0  0  0  0  0  0  0  0  0  0  0  0
    2.2120    2.3756   -0.9123 H   0  0  0  0  0  0  0  0  0  0  0  0
    1.2144    2.4573   -2.3507 H   0  0  0  0  0  0  0  0  0  0  0  0
    2.3148    1.0830   -2.2468 H   0  0  0  0  0  0  0  0  0  0  0  0
   -3.0843    2.3950   -1.0282 H   0  0  0  0  0  0  0  0  0  0  0  0
   -5.0319    1.2253    0.0024 H   0  0  0  0  0  0  0  0  0  0  0  0
   -4.7506   -0.9241    1.1162 H   0  0  0  0  0  0  0  0  0  0  0  0
   -2.4701   -1.9849    1.2319 H   0  0  0  0  0  0  0  0  0  0  0  0
   -0.4743   -2.3373    1.6888 H   0  0  0  0  0  0  0  0  0  0  0  0
    2.0607   -1.9223   -0.1215 H   0  0  0  0  0  0  0  0  0  0  0  0
    2.5721   -0.8259   -1.4024 H   0  0  0  0  0  0  0  0  0  0  0  0
    3.3667    0.8152    0.5204 H   0  0  0  0  0  0  0  0  0  0  0  0
    3.4788   -2.0015    1.7278 H   0  0  0  0  0  0  0  0  0  0  0  0
    4.3847   -0.4811    2.2810 H   0  0  0  0  0  0  0  0  0  0  0  0
  1  2  1  0
  2  3  2  0
  3  4  1  0
  4  5  2  0
  5  6  1  0
  6  7  2  0
  7  8  1  0
  8  9  2  0
  9 10  1  0
 10 11  1  0
 10 12  2  0
 12 13  1  0
 13 14  1  0
 14 15  2  0
 12  2  1  0
  9  4  1  0
  1 16  1  0
  1 17  1  0
  1 18  1  0
  5 19  1  0
  6 20  1  0
  7 21  1  0
  8 22  1  0
 11 23  1  0
 13 24  1  0
 13 25  1  0
 14 26  1  0
 15 27  1  0
 15 28  1  0
M  END
>  <Batch_No>  (161) 
STK027587

>  <EC50_nM>  (161) 
1290

>  <Set>  (161) 
Drug-like

>  <Molecular_Weight>  (161) 
199.24842

>  <ALogP>  (161) 
3.064

$$$$
MMV008127
     RDKit          3D

 46 50  0  0  0  0  0  0  0  0999 V2000
    4.8167   -0.4625   -0.1654 C   0  0  0  0  0  0  0  0  0  0  0  0
    3.6153    0.2663   -0.5075 N   0  0  0  0  0  0  0  0  0  0  0  0
    2.9730    0.8832    0.6000 C   0  0  0  0  0  0  0  0  0  0  0  0
    1.6770    0.2344    1.0130 C   0  0  0  0  0  0  0  0  0  0  0  0
    0.8103    0.0416   -0.1322 N   0  0  0  0  0  0  0  0  0  0  0  0
    1.4179    0.1536   -1.4433 C   0  0  0  0  0  0  0  0  0  0  0  0
    2.7953   -0.5210   -1.3667 C   0  0  0  0  0  0  0  0  0  0  0  0
   -0.5633   -0.2605    0.0702 C   0  0  0  0  0  0  0  0  0  0  0  0
   -0.9132   -1.6155    0.1109 C   0  0  0  0  0  0  0  0  0  0  0  0
   -0.0737   -2.8303   -0.0268 C   0  0  0  0  0  0  0  0  0  0  0  0
   -1.0511   -3.9813   -0.0007 C   0  0  0  0  0  0  0  0  0  0  0  0
   -2.4032   -3.4400    0.3194 C   0  0  0  0  0  0  0  0  0  0  0  0
   -2.2222   -1.9694    0.3057 C   0  0  0  0  0  0  0  0  0  0  0  0
   -3.2155   -0.9999    0.4645 C   0  0  0  0  0  0  0  0  0  0  0  0
   -4.5764   -1.3521    0.6670 C   0  0  0  0  0  0  0  0  0  0  0  0
   -5.6949   -1.6424    0.8523 N   0  0  0  0  0  0  0  0  0  0  0  0
   -2.8133    0.3138    0.4155 C   0  0  0  0  0  0  0  0  0  0  0  0
   -3.5819    1.4191    0.5428 N   0  0  0  0  0  0  0  0  0  0  0  0
   -2.7700    2.4834    0.4304 C   0  0  0  0  0  0  0  0  0  0  0  0
   -3.0631    3.8324    0.4880 C   0  0  0  0  0  0  0  0  0  0  0  0
   -2.0360    4.7349    0.3410 C   0  0  0  0  0  0  0  0  0  0  0  0
   -0.7365    4.2772    0.1393 C   0  0  0  0  0  0  0  0  0  0  0  0
   -0.4821    2.9009    0.0875 C   0  0  0  0  0  0  0  0  0  0  0  0
   -1.4994    1.9899    0.2331 C   0  0  0  0  0  0  0  0  0  0  0  0
   -1.5237    0.6627    0.2236 N   0  0  0  0  0  0  0  0  0  0  0  0
    5.4400    0.0861    0.5770 H   0  0  0  0  0  0  0  0  0  0  0  0
    5.3918   -0.6023   -1.1069 H   0  0  0  0  0  0  0  0  0  0  0  0
    4.5991   -1.4888    0.2078 H   0  0  0  0  0  0  0  0  0  0  0  0
    2.7992    1.9832    0.4108 H   0  0  0  0  0  0  0  0  0  0  0  0
    3.6869    0.8755    1.4546 H   0  0  0  0  0  0  0  0  0  0  0  0
    1.9411   -0.7879    1.3761 H   0  0  0  0  0  0  0  0  0  0  0  0
    1.1958    0.8408    1.8027 H   0  0  0  0  0  0  0  0  0  0  0  0
    1.6516    1.2205   -1.6159 H   0  0  0  0  0  0  0  0  0  0  0  0
    0.7966   -0.3159   -2.2280 H   0  0  0  0  0  0  0  0  0  0  0  0
    2.7223   -1.5827   -1.0652 H   0  0  0  0  0  0  0  0  0  0  0  0
    3.2158   -0.4359   -2.4032 H   0  0  0  0  0  0  0  0  0  0  0  0
    0.6363   -2.9796    0.8068 H   0  0  0  0  0  0  0  0  0  0  0  0
    0.4481   -2.7950   -1.0064 H   0  0  0  0  0  0  0  0  0  0  0  0
   -1.0675   -4.5476   -0.9568 H   0  0  0  0  0  0  0  0  0  0  0  0
   -0.7784   -4.7434    0.7699 H   0  0  0  0  0  0  0  0  0  0  0  0
   -2.7382   -3.6983    1.3573 H   0  0  0  0  0  0  0  0  0  0  0  0
   -3.1835   -3.7690   -0.4262 H   0  0  0  0  0  0  0  0  0  0  0  0
   -4.0773    4.1766    0.6461 H   0  0  0  0  0  0  0  0  0  0  0  0
   -2.1787    5.8057    0.3721 H   0  0  0  0  0  0  0  0  0  0  0  0
    0.0603    4.9991    0.0244 H   0  0  0  0  0  0  0  0  0  0  0  0
    0.5528    2.6407   -0.0717 H   0  0  0  0  0  0  0  0  0  0  0  0
  1  2  1  0
  2  3  1  0
  3  4  1  0
  4  5  1  0
  5  6  1  0
  6  7  1  0
  5  8  1  0
  8  9  2  0
  9 10  1  0
 10 11  1  0
 11 12  1  0
 12 13  1  0
 13 14  2  0
 14 15  1  0
 15 16  3  0
 14 17  1  0
 17 18  2  0
 18 19  1  0
 19 20  2  0
 20 21  1  0
 21 22  2  0
 22 23  1  0
 23 24  2  0
 24 25  1  0
  7  2  1  0
 25  8  1  0
 13  9  1  0
 25 17  1  0
 24 19  1  0
  1 26  1  0
  1 27  1  0
  1 28  1  0
  3 29  1  0
  3 30  1  0
  4 31  1  0
  4 32  1  0
  6 33  1  0
  6 34  1  0
  7 35  1  0
  7 36  1  0
 10 37  1  0
 10 38  1  0
 11 39  1  0
 11 40  1  0
 12 41  1  0
 12 42  1  0
 20 43  1  0
 21 44  1  0
 22 45  1  0
 23 46  1  0
M  END
>  <Batch_No>  (162) 
BAS 1544228

>  <EC50_nM>  (162) 
4000

>  <Set>  (162) 
Drug-like

>  <Molecular_Weight>  (162) 
331.41424

>  <ALogP>  (162) 
3.93

$$$$
MMV403679
     RDKit          3D

 54 59  0  0  0  0  0  0  0  0999 V2000
   -1.8914   -0.4936   -2.2242 C   0  0  0  0  0  0  0  0  0  0  0  0
   -2.6083   -0.9336   -3.3211 C   0  0  0  0  0  0  0  0  0  0  0  0
   -3.2659    0.1233   -3.9160 C   0  0  0  0  0  0  0  0  0  0  0  0
   -2.9321    1.2000   -3.1598 N   0  0  0  0  0  0  0  0  0  0  0  0
   -2.1302    0.8377   -2.1735 N   0  0  0  0  0  0  0  0  0  0  0  0
   -1.6205    1.7597   -1.2221 C   0  0  0  0  0  0  0  0  0  0  0  0
   -0.3371    2.2270   -1.3867 C   0  0  0  0  0  0  0  0  0  0  0  0
    0.1350    3.1217   -0.4496 C   0  0  0  0  0  0  0  0  0  0  0  0
   -0.6039    3.5609    0.6231 C   0  0  0  0  0  0  0  0  0  0  0  0
   -1.8947    3.0782    0.7712 C   0  0  0  0  0  0  0  0  0  0  0  0
   -2.7663    3.4968    1.8992 C   0  0  0  0  0  0  0  0  0  0  0  0
   -2.3712    2.1829   -0.1641 C   0  0  0  0  0  0  0  0  0  0  0  0
   -2.5847   -2.2685   -3.6651 C   0  0  0  0  0  0  0  0  0  0  0  0
   -3.2340   -2.6868   -4.6641 O   0  0  0  0  0  0  0  0  0  0  0  0
   -1.8479   -3.0904   -2.8965 N   0  0  0  0  0  0  0  0  0  0  0  0
   -1.1515   -1.3417   -1.4588 N   0  0  0  0  0  0  0  0  0  0  0  0
   -1.1470   -2.6373   -1.8176 C   0  0  0  0  0  0  0  0  0  0  0  0
   -0.3965   -3.5733   -1.0626 N   0  0  0  0  0  0  0  0  0  0  0  0
   -0.2834   -4.8721   -1.2748 N   0  0  0  0  0  0  0  0  0  0  0  0
    0.5110   -5.4519   -0.3599 C   0  0  0  0  0  0  0  0  0  0  0  0
    0.8372   -6.8939   -0.3231 C   0  0  0  0  0  0  0  0  0  0  0  0
    0.9318   -4.4605    0.4904 C   0  0  0  0  0  0  0  0  0  0  0  0
    0.3326   -3.2924    0.0060 C   0  0  0  0  0  0  0  0  0  0  0  0
    0.5626   -2.0390    0.6710 N   0  0  0  0  0  0  0  0  0  0  0  0
    1.6594   -1.2543    0.2487 C   0  0  0  0  0  0  0  0  0  0  0  0
    2.3852   -1.6841   -0.6880 O   0  0  0  0  0  0  0  0  0  0  0  0
    1.9809    0.0329    0.8567 C   0  0  0  0  0  0  0  0  0  0  0  0
    3.0432    0.8239    0.4688 C   0  0  0  0  0  0  0  0  0  0  0  0
    2.9874    1.9488    1.2969 C   0  0  0  0  0  0  0  0  0  0  0  0
    3.8045    3.0581    1.3454 C   0  0  0  0  0  0  0  0  0  0  0  0
    3.5314    4.0567    2.2773 C   0  0  0  0  0  0  0  0  0  0  0  0
    2.4489    3.8780    3.1069 C   0  0  0  0  0  0  0  0  0  0  0  0
    1.6290    2.7699    3.0617 C   0  0  0  0  0  0  0  0  0  0  0  0
    1.8978    1.7808    2.1402 C   0  0  0  0  0  0  0  0  0  0  0  0
    1.3296    0.6193    1.8363 O   0  0  0  0  0  0  0  0  0  0  0  0
   -3.9042    0.1211   -4.7830 H   0  0  0  0  0  0  0  0  0  0  0  0
    0.3199    1.9461   -2.1891 H   0  0  0  0  0  0  0  0  0  0  0  0
    1.1427    3.5085   -0.5514 H   0  0  0  0  0  0  0  0  0  0  0  0
   -0.1946    4.2758    1.3517 H   0  0  0  0  0  0  0  0  0  0  0  0
   -3.8133    3.5281    1.5021 H   0  0  0  0  0  0  0  0  0  0  0  0
   -2.5081    4.5322    2.2147 H   0  0  0  0  0  0  0  0  0  0  0  0
   -2.6363    2.7968    2.7322 H   0  0  0  0  0  0  0  0  0  0  0  0
   -3.3803    1.8208   -0.0271 H   0  0  0  0  0  0  0  0  0  0  0  0
   -1.7961   -4.1277   -3.1183 H   0  0  0  0  0  0  0  0  0  0  0  0
   -0.1039   -7.4803   -0.4754 H   0  0  0  0  0  0  0  0  0  0  0  0
    1.5938   -7.1185   -1.1152 H   0  0  0  0  0  0  0  0  0  0  0  0
    1.2567   -7.1289    0.6916 H   0  0  0  0  0  0  0  0  0  0  0  0
    1.5789   -4.5800    1.3349 H   0  0  0  0  0  0  0  0  0  0  0  0
   -0.0618   -1.7189    1.4422 H   0  0  0  0  0  0  0  0  0  0  0  0
    3.7606    0.6384   -0.2914 H   0  0  0  0  0  0  0  0  0  0  0  0
    4.6458    3.1564    0.6725 H   0  0  0  0  0  0  0  0  0  0  0  0
    4.1639    4.9431    2.3340 H   0  0  0  0  0  0  0  0  0  0  0  0
    2.2192    4.6562    3.8481 H   0  0  0  0  0  0  0  0  0  0  0  0
    0.7765    2.6478    3.7279 H   0  0  0  0  0  0  0  0  0  0  0  0
  1  2  2  0
  2  3  1  0
  3  4  2  0
  4  5  1  0
  5  6  1  0
  6  7  2  0
  7  8  1  0
  8  9  2  0
  9 10  1  0
 10 11  1  0
 10 12  2  0
  2 13  1  0
 13 14  2  0
 13 15  1  0
  1 16  1  0
 16 17  2  0
 17 18  1  0
 18 19  1  0
 19 20  2  0
 20 21  1  0
 20 22  1  0
 22 23  2  0
 23 24  1  0
 24 25  1  0
 25 26  2  0
 25 27  1  0
 27 28  2  0
 28 29  1  0
 29 30  2  0
 30 31  1  0
 31 32  2  0
 32 33  1  0
 29 34  1  0
 34 35  1  0
  5  1  1  0
 12  6  1  0
 17 15  1  0
 23 18  1  0
 35 27  1  0
 34 33  2  0
  3 36  1  0
  7 37  1  0
  8 38  1  0
  9 39  1  0
 11 40  1  0
 11 41  1  0
 11 42  1  0
 12 43  1  0
 15 44  1  0
 21 45  1  0
 21 46  1  0
 21 47  1  0
 22 48  1  0
 24 49  1  0
 28 50  1  0
 30 51  1  0
 31 52  1  0
 32 53  1  0
 33 54  1  0
M  END
>  <Batch_No>  (163) 
F5091-0273

>  <EC50_nM>  (163) 
929

>  <Set>  (163) 
Drug-like

>  <Molecular_Weight>  (163) 
465.46345

>  <ALogP>  (163) 
4.339

$$$$
MMV006545
     RDKit          3D

 42 44  0  0  0  0  0  0  0  0999 V2000
    2.3591    0.3879   -0.2977 C   0  0  0  0  0  0  0  0  0  0  0  0
    3.2395   -0.3010   -1.0972 C   0  0  0  0  0  0  0  0  0  0  0  0
    2.7311   -0.9699   -2.1510 N   0  0  0  0  0  0  0  0  0  0  0  0
    1.4016   -0.9587   -2.4069 C   0  0  0  0  0  0  0  0  0  0  0  0
    0.5483   -0.2826   -1.6199 N   0  0  0  0  0  0  0  0  0  0  0  0
    0.9797    0.4086   -0.5495 C   0  0  0  0  0  0  0  0  0  0  0  0
    0.0901    1.1230    0.3013 N   0  0  0  0  0  0  0  0  0  0  0  0
   -1.3359    1.1962    0.1039 C   0  0  0  0  0  0  0  0  0  0  0  0
   -2.0398   -0.1337    0.0839 C   0  0  0  0  0  0  0  0  0  0  0  0
   -3.4397    0.0472   -0.1034 N   0  0  0  0  0  0  0  0  0  0  0  0
   -4.1604    0.6435    0.9520 C   0  0  0  0  0  0  0  0  0  0  0  0
   -5.6226    0.7606    0.5820 C   0  0  0  0  0  0  0  0  0  0  0  0
   -4.1479   -0.9767   -0.7675 C   0  0  0  0  0  0  0  0  0  0  0  0
   -4.2958   -2.2792   -0.0605 C   0  0  0  0  0  0  0  0  0  0  0  0
    4.5006   -0.1050   -0.5651 C   0  0  0  0  0  0  0  0  0  0  0  0
    4.3766    0.7085    0.5637 C   0  0  0  0  0  0  0  0  0  0  0  0
    5.4962    1.0710    1.3022 C   0  0  0  0  0  0  0  0  0  0  0  0
    6.7445    0.6288    0.9259 C   0  0  0  0  0  0  0  0  0  0  0  0
    6.8553   -0.1743   -0.1905 C   0  0  0  0  0  0  0  0  0  0  0  0
    8.5528   -0.8393   -0.7956 Br  0  0  0  0  0  0  0  0  0  0  0  0
    5.7454   -0.5514   -0.9479 C   0  0  0  0  0  0  0  0  0  0  0  0
    3.0626    0.9876    0.6950 N   0  0  0  0  0  0  0  0  0  0  0  0
    0.9960   -1.4985   -3.2536 H   0  0  0  0  0  0  0  0  0  0  0  0
    0.5471    1.6193    1.1244 H   0  0  0  0  0  0  0  0  0  0  0  0
   -1.7480    1.7738    0.9798 H   0  0  0  0  0  0  0  0  0  0  0  0
   -1.5664    1.8105   -0.7940 H   0  0  0  0  0  0  0  0  0  0  0  0
   -1.7359   -0.7326    0.9470 H   0  0  0  0  0  0  0  0  0  0  0  0
   -1.6545   -0.6704   -0.8198 H   0  0  0  0  0  0  0  0  0  0  0  0
   -4.1415    0.0660    1.9120 H   0  0  0  0  0  0  0  0  0  0  0  0
   -3.8253    1.6764    1.2055 H   0  0  0  0  0  0  0  0  0  0  0  0
   -5.7941    1.1712   -0.4324 H   0  0  0  0  0  0  0  0  0  0  0  0
   -6.1692    1.4172    1.3119 H   0  0  0  0  0  0  0  0  0  0  0  0
   -6.1399   -0.2193    0.6291 H   0  0  0  0  0  0  0  0  0  0  0  0
   -5.1674   -0.6343   -1.0854 H   0  0  0  0  0  0  0  0  0  0  0  0
   -3.6367   -1.1635   -1.7589 H   0  0  0  0  0  0  0  0  0  0  0  0
   -5.3454   -2.6815   -0.1967 H   0  0  0  0  0  0  0  0  0  0  0  0
   -3.6637   -3.0400   -0.5648 H   0  0  0  0  0  0  0  0  0  0  0  0
   -4.1567   -2.2569    1.0307 H   0  0  0  0  0  0  0  0  0  0  0  0
    5.3732    1.6960    2.1587 H   0  0  0  0  0  0  0  0  0  0  0  0
    7.6452    0.8809    1.4642 H   0  0  0  0  0  0  0  0  0  0  0  0
    5.8465   -1.1898   -1.8317 H   0  0  0  0  0  0  0  0  0  0  0  0
    2.6956    1.5843    1.4675 H   0  0  0  0  0  0  0  0  0  0  0  0
  1  2  1  0
  2  3  2  0
  3  4  1  0
  4  5  2  0
  5  6  1  0
  6  7  1  0
  7  8  1  0
  8  9  1  0
  9 10  1  0
 10 11  1  0
 11 12  1  0
 10 13  1  0
 13 14  1  0
  2 15  1  0
 15 16  2  0
 16 17  1  0
 17 18  2  0
 18 19  1  0
 19 20  1  0
 19 21  2  0
 16 22  1  0
  6  1  2  0
 22  1  1  0
 21 15  1  0
  4 23  1  0
  7 24  1  0
  8 25  1  0
  8 26  1  0
  9 27  1  0
  9 28  1  0
 11 29  1  0
 11 30  1  0
 12 31  1  0
 12 32  1  0
 12 33  1  0
 13 34  1  0
 13 35  1  0
 14 36  1  0
 14 37  1  0
 14 38  1  0
 17 39  1  0
 18 40  1  0
 21 41  1  0
 22 42  1  0
M  END
>  <Batch_No>  (164) 
STK547406

>  <EC50_nM>  (164) 
707

>  <Set>  (164) 
Drug-like

>  <Molecular_Weight>  (164) 
362.2675

>  <ALogP>  (164) 
3.905

$$$$
MMV019700
     RDKit          3D

 38 40  0  0  0  0  0  0  0  0999 V2000
   -1.3911    1.4547    2.4170 Cl  0  0  0  0  0  0  0  0  0  0  0  0
   -0.5454    0.8603    1.0295 C   0  0  0  0  0  0  0  0  0  0  0  0
    0.8158    1.0421    0.8890 C   0  0  0  0  0  0  0  0  0  0  0  0
    1.4846    0.5643   -0.2224 C   0  0  0  0  0  0  0  0  0  0  0  0
    2.9003    0.7749   -0.3289 N   0  0  0  0  0  0  0  0  0  0  0  0
    3.7280   -0.2377    0.2254 C   0  0  0  0  0  0  0  0  0  0  0  0
    3.2082   -1.2473    0.7708 O   0  0  0  0  0  0  0  0  0  0  0  0
    5.1845   -0.1568    0.1895 C   0  0  0  0  0  0  0  0  0  0  0  0
    5.9476   -1.1063    0.7092 O   0  0  0  0  0  0  0  0  0  0  0  0
    7.2221   -0.7650    0.5309 C   0  0  0  0  0  0  0  0  0  0  0  0
    8.6539   -1.8670    1.1371 Br  0  0  0  0  0  0  0  0  0  0  0  0
    7.2817    0.4416   -0.1240 C   0  0  0  0  0  0  0  0  0  0  0  0
    5.9803    0.8340   -0.3442 C   0  0  0  0  0  0  0  0  0  0  0  0
    0.8115   -0.1119   -1.2306 C   0  0  0  0  0  0  0  0  0  0  0  0
   -0.5500   -0.2768   -1.0590 C   0  0  0  0  0  0  0  0  0  0  0  0
   -1.2359    0.1910    0.0399 C   0  0  0  0  0  0  0  0  0  0  0  0
   -2.6240   -0.0344    0.1096 N   0  0  0  0  0  0  0  0  0  0  0  0
   -3.2753   -0.7829    1.1703 C   0  0  0  0  0  0  0  0  0  0  0  0
   -4.6739   -0.1731    1.2933 C   0  0  0  0  0  0  0  0  0  0  0  0
   -5.4432   -0.5792    0.0571 C   0  0  0  0  0  0  0  0  0  0  0  0
   -4.5727   -0.5146   -1.1792 C   0  0  0  0  0  0  0  0  0  0  0  0
   -3.4821    0.5079   -0.9379 C   0  0  0  0  0  0  0  0  0  0  0  0
    1.3287    1.5783    1.6958 H   0  0  0  0  0  0  0  0  0  0  0  0
    3.3168    1.6100   -0.7802 H   0  0  0  0  0  0  0  0  0  0  0  0
    8.2030    0.9682   -0.4049 H   0  0  0  0  0  0  0  0  0  0  0  0
    5.6476    1.7329   -0.8341 H   0  0  0  0  0  0  0  0  0  0  0  0
    1.3264   -0.4891   -2.1035 H   0  0  0  0  0  0  0  0  0  0  0  0
   -1.0957   -0.8039   -1.8377 H   0  0  0  0  0  0  0  0  0  0  0  0
   -3.4083   -1.8465    0.9231 H   0  0  0  0  0  0  0  0  0  0  0  0
   -2.7343   -0.7276    2.1306 H   0  0  0  0  0  0  0  0  0  0  0  0
   -5.1456   -0.5924    2.2080 H   0  0  0  0  0  0  0  0  0  0  0  0
   -4.5733    0.9285    1.3436 H   0  0  0  0  0  0  0  0  0  0  0  0
   -5.8491   -1.6055    0.1799 H   0  0  0  0  0  0  0  0  0  0  0  0
   -6.3087    0.1085   -0.1334 H   0  0  0  0  0  0  0  0  0  0  0  0
   -4.1306   -1.5302   -1.3578 H   0  0  0  0  0  0  0  0  0  0  0  0
   -5.1290   -0.2508   -2.0971 H   0  0  0  0  0  0  0  0  0  0  0  0
   -2.9246    0.6805   -1.8759 H   0  0  0  0  0  0  0  0  0  0  0  0
   -3.9479    1.4214   -0.5391 H   0  0  0  0  0  0  0  0  0  0  0  0
  1  2  1  0
  2  3  2  0
  3  4  1  0
  4  5  1  0
  5  6  1  0
  6  7  2  0
  6  8  1  0
  8  9  1  0
  9 10  1  0
 10 11  1  0
 10 12  2  0
 12 13  1  0
  4 14  2  0
 14 15  1  0
 15 16  2  0
 16 17  1  0
 17 18  1  0
 18 19  1  0
 19 20  1  0
 20 21  1  0
 21 22  1  0
 16  2  1  0
 13  8  2  0
 22 17  1  0
  3 23  1  0
  5 24  1  0
 12 25  1  0
 13 26  1  0
 14 27  1  0
 15 28  1  0
 18 29  1  0
 18 30  1  0
 19 31  1  0
 19 32  1  0
 20 33  1  0
 20 34  1  0
 21 35  1  0
 21 36  1  0
 22 37  1  0
 22 38  1  0
M  END
>  <Batch_No>  (165) 
STK067184

>  <EC50_nM>  (165) 
735

>  <Set>  (165) 
Drug-like

>  <Molecular_Weight>  (165) 
383.66743

>  <ALogP>  (165) 
4.321

$$$$
MMV019670
     RDKit          3D

 50 53  0  0  0  0  0  0  0  0999 V2000
    5.1339    1.7878    0.8482 O   0  0  0  0  0  0  0  0  0  0  0  0
    5.7548    0.8138    0.3151 C   0  0  0  0  0  0  0  0  0  0  0  0
    5.0338   -0.2894   -0.2205 N   0  0  0  0  0  0  0  0  0  0  0  0
    3.6355   -0.4092   -0.2155 C   0  0  0  0  0  0  0  0  0  0  0  0
    2.8938    0.0756   -1.2662 C   0  0  0  0  0  0  0  0  0  0  0  0
    1.5086   -0.0321   -1.2832 C   0  0  0  0  0  0  0  0  0  0  0  0
    0.8101   -0.6329   -0.2422 C   0  0  0  0  0  0  0  0  0  0  0  0
    1.5704   -1.1131    0.8025 C   0  0  0  0  0  0  0  0  0  0  0  0
    2.9533   -1.0077    0.8233 C   0  0  0  0  0  0  0  0  0  0  0  0
   -0.6046   -0.7259   -0.2897 N   0  0  0  0  0  0  0  0  0  0  0  0
   -1.4078   -1.3582    0.7418 C   0  0  0  0  0  0  0  0  0  0  0  0
   -2.4623   -2.1243   -0.0724 C   0  0  0  0  0  0  0  0  0  0  0  0
   -3.4107   -1.1198   -0.5113 N   0  0  0  0  0  0  0  0  0  0  0  0
   -4.3975   -0.9846    0.5154 C   0  0  0  0  0  0  0  0  0  0  0  0
   -5.4632   -0.0064    0.2493 C   0  0  0  0  0  0  0  0  0  0  0  0
   -6.6027   -0.4509   -0.4282 C   0  0  0  0  0  0  0  0  0  0  0  0
   -7.6552    0.3911   -0.7190 C   0  0  0  0  0  0  0  0  0  0  0  0
   -7.5770    1.7243   -0.3242 C   0  0  0  0  0  0  0  0  0  0  0  0
   -6.4577    2.2074    0.3536 C   0  0  0  0  0  0  0  0  0  0  0  0
   -5.4201    1.3192    0.6248 C   0  0  0  0  0  0  0  0  0  0  0  0
   -2.7814    0.0744   -0.9573 C   0  0  0  0  0  0  0  0  0  0  0  0
   -1.3338   -0.1664   -1.4195 C   0  0  0  0  0  0  0  0  0  0  0  0
    7.1921    0.8149    0.2469 C   0  0  0  0  0  0  0  0  0  0  0  0
    8.0803    1.7518    0.6889 C   0  0  0  0  0  0  0  0  0  0  0  0
    9.3846    1.5582    0.5267 C   0  0  0  0  0  0  0  0  0  0  0  0
    9.7670    0.3625   -0.1097 C   0  0  0  0  0  0  0  0  0  0  0  0
    8.1880   -0.4962   -0.4784 S   0  0  0  0  0  0  0  0  0  0  0  0
    5.5751   -1.0904   -0.6605 H   0  0  0  0  0  0  0  0  0  0  0  0
    3.4285    0.5407   -2.0726 H   0  0  0  0  0  0  0  0  0  0  0  0
    0.9767    0.3666   -2.1347 H   0  0  0  0  0  0  0  0  0  0  0  0
    1.0927   -1.5921    1.6456 H   0  0  0  0  0  0  0  0  0  0  0  0
    3.4879   -1.4126    1.6870 H   0  0  0  0  0  0  0  0  0  0  0  0
   -0.8687   -2.0469    1.3880 H   0  0  0  0  0  0  0  0  0  0  0  0
   -1.8605   -0.5298    1.3144 H   0  0  0  0  0  0  0  0  0  0  0  0
   -1.9859   -2.5608   -0.9901 H   0  0  0  0  0  0  0  0  0  0  0  0
   -2.9550   -2.8948    0.5499 H   0  0  0  0  0  0  0  0  0  0  0  0
   -4.8233   -2.0220    0.6551 H   0  0  0  0  0  0  0  0  0  0  0  0
   -3.9447   -0.7799    1.5297 H   0  0  0  0  0  0  0  0  0  0  0  0
   -6.6659   -1.4899   -0.7369 H   0  0  0  0  0  0  0  0  0  0  0  0
   -8.5317    0.0036   -1.2522 H   0  0  0  0  0  0  0  0  0  0  0  0
   -8.4126    2.3779   -0.5593 H   0  0  0  0  0  0  0  0  0  0  0  0
   -6.4237    3.2497    0.6490 H   0  0  0  0  0  0  0  0  0  0  0  0
   -4.5569    1.6939    1.1511 H   0  0  0  0  0  0  0  0  0  0  0  0
   -2.8160    0.9357   -0.2879 H   0  0  0  0  0  0  0  0  0  0  0  0
   -3.3316    0.3854   -1.8952 H   0  0  0  0  0  0  0  0  0  0  0  0
   -1.3779   -0.8503   -2.2790 H   0  0  0  0  0  0  0  0  0  0  0  0
   -0.9500    0.8560   -1.6747 H   0  0  0  0  0  0  0  0  0  0  0  0
    7.6811    2.6771    1.1864 H   0  0  0  0  0  0  0  0  0  0  0  0
   10.1806    2.2473    0.8451 H   0  0  0  0  0  0  0  0  0  0  0  0
   10.7496   -0.0284   -0.3587 H   0  0  0  0  0  0  0  0  0  0  0  0
  1  2  2  0
  2  3  1  0
  3  4  1  0
  4  5  2  0
  5  6  1  0
  6  7  2  0
  7  8  1  0
  8  9  2  0
  7 10  1  0
 10 11  1  0
 11 12  1  0
 12 13  1  0
 13 14  1  0
 14 15  1  0
 15 16  2  0
 16 17  1  0
 17 18  2  0
 18 19  1  0
 19 20  2  0
 13 21  1  0
 21 22  1  0
  2 23  1  0
 23 24  2  0
 24 25  1  0
 25 26  2  0
 26 27  1  0
  9  4  1  0
 22 10  1  0
 20 15  1  0
 27 23  1  0
  3 28  1  0
  5 29  1  0
  6 30  1  0
  8 31  1  0
  9 32  1  0
 11 33  1  0
 11 34  1  0
 12 35  1  0
 12 36  1  0
 14 37  1  0
 14 38  1  0
 16 39  1  0
 17 40  1  0
 18 41  1  0
 19 42  1  0
 20 43  1  0
 21 44  1  0
 21 45  1  0
 22 46  1  0
 22 47  1  0
 24 48  1  0
 25 49  1  0
 26 50  1  0
M  END
>  <Batch_No>  (166) 
STK327320

>  <EC50_nM>  (166) 
1075

>  <Set>  (166) 
Drug-like

>  <Molecular_Weight>  (166) 
377.50252

>  <ALogP>  (166) 
4.271

$$$$
MMV001344
     RDKit          3D

 35 36  0  0  0  0  0  0  0  0999 V2000
   -2.8420   -0.7082   -1.6517 C   0  0  0  0  0  0  0  0  0  0  0  0
   -2.6264   -1.0641   -0.2038 C   0  0  0  0  0  0  0  0  0  0  0  0
   -2.7969    0.1487    0.6396 C   0  0  0  0  0  0  0  0  0  0  0  0
   -1.6068    1.0570    0.6795 C   0  0  0  0  0  0  0  0  0  0  0  0
   -1.6997    2.0034    1.8583 C   0  0  0  0  0  0  0  0  0  0  0  0
   -0.2908    0.3960    0.6070 C   0  0  0  0  0  0  0  0  0  0  0  0
   -0.2600   -0.9457    0.0963 N   0  0  0  0  0  0  0  0  0  0  0  0
   -1.3828   -1.8315    0.0787 C   0  0  0  0  0  0  0  0  0  0  0  0
    0.9887   -1.4330   -0.4351 C   0  0  0  0  0  0  0  0  0  0  0  0
    1.1049   -2.5952   -0.9025 O   0  0  0  0  0  0  0  0  0  0  0  0
    2.1885   -0.5991   -0.4585 C   0  0  0  0  0  0  0  0  0  0  0  0
    2.5132    0.2222   -1.5183 C   0  0  0  0  0  0  0  0  0  0  0  0
    3.6797    0.9848   -1.4560 C   0  0  0  0  0  0  0  0  0  0  0  0
    4.5008    0.9186   -0.3453 C   0  0  0  0  0  0  0  0  0  0  0  0
    5.9822    1.8710   -0.2376 Cl  0  0  0  0  0  0  0  0  0  0  0  0
    4.1875    0.1015    0.7209 C   0  0  0  0  0  0  0  0  0  0  0  0
    3.0174   -0.6544    0.6421 C   0  0  0  0  0  0  0  0  0  0  0  0
    2.6236   -1.6989    2.0131 Cl  0  0  0  0  0  0  0  0  0  0  0  0
   -3.7766   -1.1252   -2.0836 H   0  0  0  0  0  0  0  0  0  0  0  0
   -2.9423    0.4070   -1.7672 H   0  0  0  0  0  0  0  0  0  0  0  0
   -2.0083   -1.0097   -2.3207 H   0  0  0  0  0  0  0  0  0  0  0  0
   -3.4786   -1.7579    0.0599 H   0  0  0  0  0  0  0  0  0  0  0  0
   -3.0367   -0.1546    1.6801 H   0  0  0  0  0  0  0  0  0  0  0  0
   -3.7027    0.6763    0.2726 H   0  0  0  0  0  0  0  0  0  0  0  0
   -1.6935    1.7017   -0.2392 H   0  0  0  0  0  0  0  0  0  0  0  0
   -2.0759    1.4841    2.7443 H   0  0  0  0  0  0  0  0  0  0  0  0
   -2.3749    2.8599    1.6627 H   0  0  0  0  0  0  0  0  0  0  0  0
   -0.6800    2.3690    2.1114 H   0  0  0  0  0  0  0  0  0  0  0  0
    0.1114    0.3325    1.6592 H   0  0  0  0  0  0  0  0  0  0  0  0
    0.4508    1.0021    0.0518 H   0  0  0  0  0  0  0  0  0  0  0  0
   -1.2583   -2.6334   -0.6723 H   0  0  0  0  0  0  0  0  0  0  0  0
   -1.4731   -2.2679    1.0827 H   0  0  0  0  0  0  0  0  0  0  0  0
    1.8601    0.2654   -2.3848 H   0  0  0  0  0  0  0  0  0  0  0  0
    3.9649    1.6377   -2.2655 H   0  0  0  0  0  0  0  0  0  0  0  0
    4.8325    0.0399    1.6101 H   0  0  0  0  0  0  0  0  0  0  0  0
  1  2  1  0
  2  3  1  0
  3  4  1  0
  4  5  1  0
  4  6  1  0
  6  7  1  0
  7  8  1  0
  7  9  1  0
  9 10  2  0
  9 11  1  0
 11 12  2  0
 12 13  1  0
 13 14  2  0
 14 15  1  0
 14 16  1  0
 16 17  2  0
 17 18  1  0
  8  2  1  0
 17 11  1  0
  1 19  1  0
  1 20  1  0
  1 21  1  0
  2 22  1  0
  3 23  1  0
  3 24  1  0
  4 25  1  0
  5 26  1  0
  5 27  1  0
  5 28  1  0
  6 29  1  0
  6 30  1  0
  8 31  1  0
  8 32  1  0
 12 33  1  0
 13 34  1  0
 16 35  1  0
M  END
>  <Batch_No>  (167) 
STK024238

>  <EC50_nM>  (167) 
755.5

>  <Set>  (167) 
Drug-like

>  <Molecular_Weight>  (167) 
286.19687

>  <ALogP>  (167) 
4.128

$$$$
MMV011795
     RDKit          3D

 53 56  0  0  0  0  0  0  0  0999 V2000
    4.3213   -2.1839   -1.3590 O   0  0  0  0  0  0  0  0  0  0  0  0
    4.9252   -1.3474   -0.4281 C   0  0  0  0  0  0  0  0  0  0  0  0
    6.0299   -1.8238    0.2721 C   0  0  0  0  0  0  0  0  0  0  0  0
    6.6691   -1.0422    1.2055 C   0  0  0  0  0  0  0  0  0  0  0  0
    6.1881    0.2274    1.4317 C   0  0  0  0  0  0  0  0  0  0  0  0
    5.0883    0.7016    0.7347 C   0  0  0  0  0  0  0  0  0  0  0  0
    4.4289   -0.0607   -0.2065 C   0  0  0  0  0  0  0  0  0  0  0  0
    3.2636    0.4204   -0.9557 C   0  0  0  0  0  0  0  0  0  0  0  0
    2.0194   -0.1160   -0.5014 N   0  0  0  0  0  0  0  0  0  0  0  0
    1.6903    0.1719    0.8578 C   0  0  0  0  0  0  0  0  0  0  0  0
    0.2833   -0.4390    1.0899 C   0  0  0  0  0  0  0  0  0  0  0  0
   -0.7152    0.3780    0.4681 N   0  0  0  0  0  0  0  0  0  0  0  0
   -0.0708    1.1623   -0.5693 C   0  0  0  0  0  0  0  0  0  0  0  0
    0.9298    0.3007   -1.3513 C   0  0  0  0  0  0  0  0  0  0  0  0
   -1.8884   -0.2303   -0.0253 C   0  0  0  0  0  0  0  0  0  0  0  0
   -2.7096    0.7954   -0.7927 C   0  0  0  0  0  0  0  0  0  0  0  0
   -3.2562    0.4845   -2.0204 C   0  0  0  0  0  0  0  0  0  0  0  0
   -4.0018    1.4520   -2.6860 C   0  0  0  0  0  0  0  0  0  0  0  0
   -4.2032    2.7139   -2.1398 C   0  0  0  0  0  0  0  0  0  0  0  0
   -3.6410    3.0100   -0.8942 C   0  0  0  0  0  0  0  0  0  0  0  0
   -2.8890    2.0547   -0.2082 C   0  0  0  0  0  0  0  0  0  0  0  0
   -2.8200   -0.8331    0.9313 C   0  0  0  0  0  0  0  0  0  0  0  0
   -4.1839   -0.4898    0.8986 C   0  0  0  0  0  0  0  0  0  0  0  0
   -5.1036   -1.0333    1.7609 C   0  0  0  0  0  0  0  0  0  0  0  0
   -4.7425   -1.9527    2.7148 C   0  0  0  0  0  0  0  0  0  0  0  0
   -3.4144   -2.3094    2.7717 C   0  0  0  0  0  0  0  0  0  0  0  0
   -2.4853   -1.7566    1.8962 C   0  0  0  0  0  0  0  0  0  0  0  0
    3.4285   -2.6168   -1.2498 H   0  0  0  0  0  0  0  0  0  0  0  0
    6.4297   -2.8213    0.1127 H   0  0  0  0  0  0  0  0  0  0  0  0
    7.5338   -1.3733    1.7745 H   0  0  0  0  0  0  0  0  0  0  0  0
    6.6738    0.8791    2.1698 H   0  0  0  0  0  0  0  0  0  0  0  0
    4.7121    1.7072    0.9185 H   0  0  0  0  0  0  0  0  0  0  0  0
    3.3759    0.1698   -2.0314 H   0  0  0  0  0  0  0  0  0  0  0  0
    3.2268    1.5401   -0.9196 H   0  0  0  0  0  0  0  0  0  0  0  0
    1.6954    1.2291    1.1317 H   0  0  0  0  0  0  0  0  0  0  0  0
    2.3844   -0.3286    1.5862 H   0  0  0  0  0  0  0  0  0  0  0  0
    0.2992   -1.4570    0.6478 H   0  0  0  0  0  0  0  0  0  0  0  0
    0.2250   -0.5282    2.1791 H   0  0  0  0  0  0  0  0  0  0  0  0
   -0.7789    1.5238   -1.3522 H   0  0  0  0  0  0  0  0  0  0  0  0
    0.4030    2.0945   -0.1827 H   0  0  0  0  0  0  0  0  0  0  0  0
    0.3406   -0.5661   -1.7214 H   0  0  0  0  0  0  0  0  0  0  0  0
    1.2933    0.8956   -2.1892 H   0  0  0  0  0  0  0  0  0  0  0  0
   -1.5988   -1.0042   -0.7928 H   0  0  0  0  0  0  0  0  0  0  0  0
   -3.1034   -0.5078   -2.4603 H   0  0  0  0  0  0  0  0  0  0  0  0
   -4.4310    1.2115   -3.6481 H   0  0  0  0  0  0  0  0  0  0  0  0
   -4.7833    3.4731   -2.6530 H   0  0  0  0  0  0  0  0  0  0  0  0
   -3.7624    3.9706   -0.4197 H   0  0  0  0  0  0  0  0  0  0  0  0
   -2.4448    2.2497    0.7485 H   0  0  0  0  0  0  0  0  0  0  0  0
   -4.5632    0.2292    0.1779 H   0  0  0  0  0  0  0  0  0  0  0  0
   -6.1472   -0.7390    1.6998 H   0  0  0  0  0  0  0  0  0  0  0  0
   -5.5073   -2.3468    3.3657 H   0  0  0  0  0  0  0  0  0  0  0  0
   -3.1346   -3.0353    3.5264 H   0  0  0  0  0  0  0  0  0  0  0  0
   -1.4789   -2.1037    2.0116 H   0  0  0  0  0  0  0  0  0  0  0  0
  1  2  1  0
  2  3  2  0
  3  4  1  0
  4  5  2  0
  5  6  1  0
  6  7  2  0
  7  8  1  0
  8  9  1  0
  9 10  1  0
 10 11  1  0
 11 12  1  0
 12 13  1  0
 13 14  1  0
 12 15  1  0
 15 16  1  0
 16 17  2  0
 17 18  1  0
 18 19  2  0
 19 20  1  0
 20 21  2  0
 15 22  1  0
 22 23  2  0
 23 24  1  0
 24 25  2  0
 25 26  1  0
 26 27  2  0
  7  2  1  0
 14  9  1  0
 21 16  1  0
 27 22  1  0
  1 28  1  0
  3 29  1  0
  4 30  1  0
  5 31  1  0
  6 32  1  0
  8 33  1  0
  8 34  1  0
 10 35  1  0
 10 36  1  0
 11 37  1  0
 11 38  1  0
 13 39  1  0
 13 40  1  0
 14 41  1  0
 14 42  1  0
 15 43  1  0
 17 44  1  0
 18 45  1  0
 19 46  1  0
 20 47  1  0
 21 48  1  0
 23 49  1  0
 24 50  1  0
 25 51  1  0
 26 52  1  0
 27 53  1  0
M  END
>  <Batch_No>  (168) 
STK110845

>  <EC50_nM>  (168) 
611

>  <Set>  (168) 
Drug-like

>  <Molecular_Weight>  (168) 
358.47604

>  <ALogP>  (168) 
4.814

$$$$
MMV019124
     RDKit          3D

 47 50  0  0  0  0  0  0  0  0999 V2000
   -6.2632   -1.5770   -2.9847 C   0  0  0  0  0  0  0  0  0  0  0  0
   -6.7810   -1.0069   -1.7828 O   0  0  0  0  0  0  0  0  0  0  0  0
   -5.8745   -0.5195   -0.8520 C   0  0  0  0  0  0  0  0  0  0  0  0
   -6.3647    0.0316    0.3091 C   0  0  0  0  0  0  0  0  0  0  0  0
   -5.4475    0.5101    1.2209 C   0  0  0  0  0  0  0  0  0  0  0  0
   -5.9219    1.0680    2.3948 O   0  0  0  0  0  0  0  0  0  0  0  0
   -7.2891    1.1729    2.7072 C   0  0  0  0  0  0  0  0  0  0  0  0
   -4.0836    0.4515    1.0030 C   0  0  0  0  0  0  0  0  0  0  0  0
   -3.5849   -0.0972   -0.1538 C   0  0  0  0  0  0  0  0  0  0  0  0
   -4.5151   -0.5748   -1.0629 C   0  0  0  0  0  0  0  0  0  0  0  0
   -2.1408   -0.1842   -0.4354 C   0  0  0  0  0  0  0  0  0  0  0  0
   -1.8271   -0.7076   -1.5273 O   0  0  0  0  0  0  0  0  0  0  0  0
   -1.1503    0.2774    0.4365 N   0  0  0  0  0  0  0  0  0  0  0  0
    0.2430    0.2366    0.2531 C   0  0  0  0  0  0  0  0  0  0  0  0
    0.9053   -0.2666   -0.8223 C   0  0  0  0  0  0  0  0  0  0  0  0
    2.3014   -0.2717   -0.9330 C   0  0  0  0  0  0  0  0  0  0  0  0
    3.0666    0.2429    0.0630 C   0  0  0  0  0  0  0  0  0  0  0  0
    2.4300    0.7627    1.1705 C   0  0  0  0  0  0  0  0  0  0  0  0
    1.0555    0.7635    1.2708 C   0  0  0  0  0  0  0  0  0  0  0  0
    4.5250    0.2722    0.0183 C   0  0  0  0  0  0  0  0  0  0  0  0
    5.2577   -0.2123   -1.0236 N   0  0  0  0  0  0  0  0  0  0  0  0
    6.5662   -0.0427   -0.7712 C   0  0  0  0  0  0  0  0  0  0  0  0
    7.6945   -0.3598   -1.4995 C   0  0  0  0  0  0  0  0  0  0  0  0
    8.9214   -0.0477   -0.9503 C   0  0  0  0  0  0  0  0  0  0  0  0
    9.0055    0.5651    0.2949 C   0  0  0  0  0  0  0  0  0  0  0  0
    7.8760    0.8794    1.0177 C   0  0  0  0  0  0  0  0  0  0  0  0
    6.6474    0.5686    0.4712 C   0  0  0  0  0  0  0  0  0  0  0  0
    5.3912    0.7557    0.9434 N   0  0  0  0  0  0  0  0  0  0  0  0
   -7.0826   -1.8329   -3.6872 H   0  0  0  0  0  0  0  0  0  0  0  0
   -5.5844   -0.8193   -3.4299 H   0  0  0  0  0  0  0  0  0  0  0  0
   -5.7073   -2.5140   -2.7970 H   0  0  0  0  0  0  0  0  0  0  0  0
   -7.4356    0.0655    0.4555 H   0  0  0  0  0  0  0  0  0  0  0  0
   -7.6584    0.1441    2.9512 H   0  0  0  0  0  0  0  0  0  0  0  0
   -7.9124    1.4990    1.8252 H   0  0  0  0  0  0  0  0  0  0  0  0
   -7.4588    1.8445    3.5514 H   0  0  0  0  0  0  0  0  0  0  0  0
   -3.4507    0.8445    1.7604 H   0  0  0  0  0  0  0  0  0  0  0  0
   -4.1617   -1.0106   -1.9787 H   0  0  0  0  0  0  0  0  0  0  0  0
   -1.4978    0.7101    1.3454 H   0  0  0  0  0  0  0  0  0  0  0  0
    0.3822   -0.6933   -1.6562 H   0  0  0  0  0  0  0  0  0  0  0  0
    2.7809   -0.6857   -1.8129 H   0  0  0  0  0  0  0  0  0  0  0  0
    3.0245    1.1761    1.9720 H   0  0  0  0  0  0  0  0  0  0  0  0
    0.6376    1.1891    2.1700 H   0  0  0  0  0  0  0  0  0  0  0  0
    7.6280   -0.8358   -2.4668 H   0  0  0  0  0  0  0  0  0  0  0  0
    9.7959   -0.2984   -1.5250 H   0  0  0  0  0  0  0  0  0  0  0  0
    9.9686    0.8108    0.7276 H   0  0  0  0  0  0  0  0  0  0  0  0
    7.9893    1.3521    1.9747 H   0  0  0  0  0  0  0  0  0  0  0  0
    5.0998    1.1870    1.8450 H   0  0  0  0  0  0  0  0  0  0  0  0
  1  2  1  0
  2  3  1  0
  3  4  2  0
  4  5  1  0
  5  6  1  0
  6  7  1  0
  5  8  2  0
  8  9  1  0
  9 10  2  0
  9 11  1  0
 11 12  2  0
 11 13  1  0
 13 14  1  0
 14 15  2  0
 15 16  1  0
 16 17  2  0
 17 18  1  0
 18 19  2  0
 17 20  1  0
 20 21  2  0
 21 22  1  0
 22 23  2  0
 23 24  1  0
 24 25  2  0
 25 26  1  0
 26 27  2  0
 27 28  1  0
 10  3  1  0
 19 14  1  0
 28 20  1  0
 27 22  1  0
  1 29  1  0
  1 30  1  0
  1 31  1  0
  4 32  1  0
  7 33  1  0
  7 34  1  0
  7 35  1  0
  8 36  1  0
 10 37  1  0
 13 38  1  0
 15 39  1  0
 16 40  1  0
 18 41  1  0
 19 42  1  0
 23 43  1  0
 24 44  1  0
 25 45  1  0
 26 46  1  0
 28 47  1  0
M  END
>  <Batch_No>  (169) 
STK863826

>  <EC50_nM>  (169) 
1089.5

>  <Set>  (169) 
Drug-like

>  <Molecular_Weight>  (169) 
373.40456

>  <ALogP>  (169) 
4.022

$$$$
MMV006767
     RDKit          3D

 41 43  0  0  0  0  0  0  0  0999 V2000
   -3.9758    2.8085    2.1560 C   0  0  0  0  0  0  0  0  0  0  0  0
   -4.5138    1.5655    1.7112 O   0  0  0  0  0  0  0  0  0  0  0  0
   -3.7094    0.6159    1.0966 C   0  0  0  0  0  0  0  0  0  0  0  0
   -2.3514    0.8652    0.9030 C   0  0  0  0  0  0  0  0  0  0  0  0
   -1.5441   -0.0737    0.2925 C   0  0  0  0  0  0  0  0  0  0  0  0
   -0.1895    0.1670    0.0958 C   0  0  0  0  0  0  0  0  0  0  0  0
    0.6080   -0.7699   -0.5115 C   0  0  0  0  0  0  0  0  0  0  0  0
    2.0440   -0.5801   -0.7497 C   0  0  0  0  0  0  0  0  0  0  0  0
    2.6311   -1.5315   -1.3160 O   0  0  0  0  0  0  0  0  0  0  0  0
    2.7487    0.5825   -0.3792 N   0  0  0  0  0  0  0  0  0  0  0  0
    4.1140    0.8455   -0.5680 C   0  0  0  0  0  0  0  0  0  0  0  0
    5.0308    0.0114   -1.1550 C   0  0  0  0  0  0  0  0  0  0  0  0
    6.3771    0.3613   -1.2999 C   0  0  0  0  0  0  0  0  0  0  0  0
    6.8322    1.5651   -0.8545 C   0  0  0  0  0  0  0  0  0  0  0  0
    5.9390    2.4209   -0.2630 C   0  0  0  0  0  0  0  0  0  0  0  0
    4.6143    2.0725   -0.1223 C   0  0  0  0  0  0  0  0  0  0  0  0
    0.0194   -1.9436   -0.9132 C   0  0  0  0  0  0  0  0  0  0  0  0
    0.7507   -2.9978   -1.5591 N   0  0  0  0  0  0  0  0  0  0  0  0
   -1.3114   -2.1666   -0.7138 N   0  0  0  0  0  0  0  0  0  0  0  0
   -2.1189   -1.2650   -0.1203 C   0  0  0  0  0  0  0  0  0  0  0  0
   -3.4651   -1.4965    0.0787 C   0  0  0  0  0  0  0  0  0  0  0  0
   -4.2897   -0.5663    0.6891 C   0  0  0  0  0  0  0  0  0  0  0  0
   -5.6305   -0.7629    0.9028 O   0  0  0  0  0  0  0  0  0  0  0  0
   -6.3310   -1.9230    0.5326 C   0  0  0  0  0  0  0  0  0  0  0  0
   -3.2825    2.6856    2.9967 H   0  0  0  0  0  0  0  0  0  0  0  0
   -3.3565    3.1949    1.2947 H   0  0  0  0  0  0  0  0  0  0  0  0
   -4.7912    3.5371    2.3272 H   0  0  0  0  0  0  0  0  0  0  0  0
   -1.8815    1.7869    1.2167 H   0  0  0  0  0  0  0  0  0  0  0  0
    0.2058    1.1107    0.4364 H   0  0  0  0  0  0  0  0  0  0  0  0
    2.1682    1.3354    0.0950 H   0  0  0  0  0  0  0  0  0  0  0  0
    4.7519   -0.9365   -1.5236 H   0  0  0  0  0  0  0  0  0  0  0  0
    7.0851   -0.3116   -1.7663 H   0  0  0  0  0  0  0  0  0  0  0  0
    7.8555    1.8290   -0.9656 H   0  0  0  0  0  0  0  0  0  0  0  0
    6.2840    3.3614    0.0874 H   0  0  0  0  0  0  0  0  0  0  0  0
    3.9681    2.8091    0.3592 H   0  0  0  0  0  0  0  0  0  0  0  0
    0.8059   -3.1017   -2.5856 H   0  0  0  0  0  0  0  0  0  0  0  0
    1.2611   -3.7075   -0.9564 H   0  0  0  0  0  0  0  0  0  0  0  0
   -3.8810   -2.4353   -0.2551 H   0  0  0  0  0  0  0  0  0  0  0  0
   -6.1532   -2.6757    1.3463 H   0  0  0  0  0  0  0  0  0  0  0  0
   -5.9164   -2.4035   -0.3977 H   0  0  0  0  0  0  0  0  0  0  0  0
   -7.4018   -1.7516    0.3581 H   0  0  0  0  0  0  0  0  0  0  0  0
  1  2  1  0
  2  3  1  0
  3  4  2  0
  4  5  1  0
  5  6  2  0
  6  7  1  0
  7  8  1  0
  8  9  2  0
  8 10  1  0
 10 11  1  0
 11 12  2  0
 12 13  1  0
 13 14  2  0
 14 15  1  0
 15 16  2  0
  7 17  2  0
 17 18  1  0
 17 19  1  0
 19 20  2  0
 20 21  1  0
 21 22  2  0
 22 23  1  0
 23 24  1  0
 22  3  1  0
 20  5  1  0
 16 11  1  0
  1 25  1  0
  1 26  1  0
  1 27  1  0
  4 28  1  0
  6 29  1  0
 10 30  1  0
 12 31  1  0
 13 32  1  0
 14 33  1  0
 15 34  1  0
 16 35  1  0
 18 36  1  0
 18 37  1  0
 21 38  1  0
 24 39  1  0
 24 40  1  0
 24 41  1  0
M  END
>  <Batch_No>  (170) 
STK895036

>  <EC50_nM>  (170) 
927

>  <Set>  (170) 
Drug-like

>  <Molecular_Weight>  (170) 
323.34587

>  <ALogP>  (170) 
2.56

$$$$
MMV007808
     RDKit          3D

 38 39  0  0  0  0  0  0  0  0999 V2000
    4.0209   -3.5276   -0.5827 C   0  0  0  0  0  0  0  0  0  0  0  0
    2.9402   -2.7499   -0.0847 O   0  0  0  0  0  0  0  0  0  0  0  0
    3.0069   -1.3800    0.0698 C   0  0  0  0  0  0  0  0  0  0  0  0
    1.9219   -0.7093    0.5570 N   0  0  0  0  0  0  0  0  0  0  0  0
    1.9926    0.6270    0.7059 C   0  0  0  0  0  0  0  0  0  0  0  0
    0.8354    1.2874    1.1748 N   0  0  0  0  0  0  0  0  0  0  0  0
   -0.4804    0.9145    0.8276 C   0  0  0  0  0  0  0  0  0  0  0  0
   -0.6370    0.1158   -0.3036 C   0  0  0  0  0  0  0  0  0  0  0  0
   -1.9003   -0.2889   -0.7167 C   0  0  0  0  0  0  0  0  0  0  0  0
   -3.0350    0.0971   -0.0059 C   0  0  0  0  0  0  0  0  0  0  0  0
   -2.8550    0.8745    1.0941 C   0  0  0  0  0  0  0  0  0  0  0  0
   -1.6025    1.2926    1.5276 C   0  0  0  0  0  0  0  0  0  0  0  0
   -4.3300   -0.3595   -0.5188 C   0  0  0  0  0  0  0  0  0  0  0  0
   -4.8368   -1.4663    0.4028 C   0  0  0  0  0  0  0  0  0  0  0  0
   -5.2858    0.8089   -0.5470 C   0  0  0  0  0  0  0  0  0  0  0  0
    3.1194    1.2943    0.3797 N   0  0  0  0  0  0  0  0  0  0  0  0
    4.1968    0.6092   -0.1073 C   0  0  0  0  0  0  0  0  0  0  0  0
    5.3641    1.2729   -0.4517 O   0  0  0  0  0  0  0  0  0  0  0  0
    5.4458    2.6543   -0.2983 C   0  0  0  0  0  0  0  0  0  0  0  0
    4.1412   -0.7264   -0.2622 N   0  0  0  0  0  0  0  0  0  0  0  0
    3.9682   -4.5706   -0.2190 H   0  0  0  0  0  0  0  0  0  0  0  0
    4.9798   -3.1317   -0.1395 H   0  0  0  0  0  0  0  0  0  0  0  0
    4.1469   -3.4762   -1.6665 H   0  0  0  0  0  0  0  0  0  0  0  0
    0.9529    2.1098    1.8250 H   0  0  0  0  0  0  0  0  0  0  0  0
    0.1820   -0.2202   -0.9144 H   0  0  0  0  0  0  0  0  0  0  0  0
   -2.0053   -0.9076   -1.6013 H   0  0  0  0  0  0  0  0  0  0  0  0
   -3.7356    1.1941    1.6748 H   0  0  0  0  0  0  0  0  0  0  0  0
   -1.4508    1.9065    2.3986 H   0  0  0  0  0  0  0  0  0  0  0  0
   -4.1939   -0.8088   -1.5355 H   0  0  0  0  0  0  0  0  0  0  0  0
   -3.9749   -1.9687    0.8861 H   0  0  0  0  0  0  0  0  0  0  0  0
   -5.3333   -2.2516   -0.2398 H   0  0  0  0  0  0  0  0  0  0  0  0
   -5.4989   -1.0965    1.1867 H   0  0  0  0  0  0  0  0  0  0  0  0
   -6.2164    0.5830   -1.0820 H   0  0  0  0  0  0  0  0  0  0  0  0
   -4.7418    1.6600   -1.0516 H   0  0  0  0  0  0  0  0  0  0  0  0
   -5.4477    1.1527    0.4983 H   0  0  0  0  0  0  0  0  0  0  0  0
    5.1338    3.2100   -1.2123 H   0  0  0  0  0  0  0  0  0  0  0  0
    4.7518    2.9741    0.5157 H   0  0  0  0  0  0  0  0  0  0  0  0
    6.4609    3.0012   -0.0158 H   0  0  0  0  0  0  0  0  0  0  0  0
  1  2  1  0
  2  3  1  0
  3  4  2  0
  4  5  1  0
  5  6  1  0
  6  7  1  0
  7  8  2  0
  8  9  1  0
  9 10  2  0
 10 11  1  0
 11 12  2  0
 10 13  1  0
 13 14  1  0
 13 15  1  0
  5 16  2  0
 16 17  1  0
 17 18  1  0
 18 19  1  0
 17 20  2  0
 20  3  1  0
 12  7  1  0
  1 21  1  0
  1 22  1  0
  1 23  1  0
  6 24  1  0
  8 25  1  0
  9 26  1  0
 11 27  1  0
 12 28  1  0
 13 29  1  0
 14 30  1  0
 14 31  1  0
 14 32  1  0
 15 33  1  0
 15 34  1  0
 15 35  1  0
 19 36  1  0
 19 37  1  0
 19 38  1  0
M  END
>  <Batch_No>  (171) 
STK723365

>  <EC50_nM>  (171) 
1140

>  <Set>  (171) 
Drug-like

>  <Molecular_Weight>  (171) 
274.31832

>  <ALogP>  (171) 
3.582

$$$$
MMV019017
     RDKit          3D

 44 46  0  0  0  0  0  0  0  0999 V2000
   -1.5925    0.4625   -1.0580 N   0  0  0  0  0  0  0  0  0  0  0  0
   -0.3379    0.9492   -1.5071 C   0  0  0  0  0  0  0  0  0  0  0  0
    0.8776    0.2029   -1.2493 C   0  0  0  0  0  0  0  0  0  0  0  0
    1.1622   -0.0238    0.2127 C   0  0  0  0  0  0  0  0  0  0  0  0
    2.3439   -0.7284    0.5331 N   0  0  0  0  0  0  0  0  0  0  0  0
    3.5888   -0.1045    0.3609 C   0  0  0  0  0  0  0  0  0  0  0  0
    4.7543   -1.0884    0.5718 C   0  0  0  0  0  0  0  0  0  0  0  0
    5.9748   -0.4776    0.4017 O   0  0  0  0  0  0  0  0  0  0  0  0
    6.2212    0.5682    1.2835 C   0  0  0  0  0  0  0  0  0  0  0  0
    1.9494    0.9684   -1.7058 O   0  0  0  0  0  0  0  0  0  0  0  0
   -2.4080   -0.3836   -1.7062 C   0  0  0  0  0  0  0  0  0  0  0  0
   -3.5135   -0.5691   -0.8945 C   0  0  0  0  0  0  0  0  0  0  0  0
   -4.5432   -1.4110   -1.2984 C   0  0  0  0  0  0  0  0  0  0  0  0
   -4.4548   -2.0666   -2.5255 C   0  0  0  0  0  0  0  0  0  0  0  0
   -5.7216   -3.1359   -3.0867 Cl  0  0  0  0  0  0  0  0  0  0  0  0
   -3.3635   -1.8958   -3.3511 C   0  0  0  0  0  0  0  0  0  0  0  0
   -2.3500   -1.0566   -2.9325 C   0  0  0  0  0  0  0  0  0  0  0  0
   -2.1526    0.8106    0.1287 C   0  0  0  0  0  0  0  0  0  0  0  0
   -3.3710    0.1798    0.2755 C   0  0  0  0  0  0  0  0  0  0  0  0
   -4.1799    0.3261    1.3727 C   0  0  0  0  0  0  0  0  0  0  0  0
   -3.7214    1.1732    2.3863 C   0  0  0  0  0  0  0  0  0  0  0  0
   -4.7070    1.4056    3.8209 Cl  0  0  0  0  0  0  0  0  0  0  0  0
   -2.4897    1.8259    2.2585 C   0  0  0  0  0  0  0  0  0  0  0  0
   -1.6959    1.6606    1.1491 C   0  0  0  0  0  0  0  0  0  0  0  0
   -0.4209    1.0775   -2.6299 H   0  0  0  0  0  0  0  0  0  0  0  0
   -0.2145    1.9867   -1.1293 H   0  0  0  0  0  0  0  0  0  0  0  0
    1.0201   -0.7250   -1.8559 H   0  0  0  0  0  0  0  0  0  0  0  0
    1.3129    1.0230    0.6319 H   0  0  0  0  0  0  0  0  0  0  0  0
    0.2784   -0.4084    0.7678 H   0  0  0  0  0  0  0  0  0  0  0  0
    2.3036   -1.7649    0.5085 H   0  0  0  0  0  0  0  0  0  0  0  0
    3.6922    0.6333    1.2428 H   0  0  0  0  0  0  0  0  0  0  0  0
    3.7592    0.5429   -0.5151 H   0  0  0  0  0  0  0  0  0  0  0  0
    4.6223   -1.6276    1.5245 H   0  0  0  0  0  0  0  0  0  0  0  0
    4.6698   -1.8549   -0.2527 H   0  0  0  0  0  0  0  0  0  0  0  0
    6.2095    0.2494    2.3486 H   0  0  0  0  0  0  0  0  0  0  0  0
    7.2538    0.9365    1.0776 H   0  0  0  0  0  0  0  0  0  0  0  0
    5.5365    1.4467    1.0974 H   0  0  0  0  0  0  0  0  0  0  0  0
    1.8214    1.2788   -2.6339 H   0  0  0  0  0  0  0  0  0  0  0  0
   -5.4048   -1.5750   -0.6958 H   0  0  0  0  0  0  0  0  0  0  0  0
   -3.2789   -2.4045   -4.3263 H   0  0  0  0  0  0  0  0  0  0  0  0
   -1.4445   -0.8815   -3.5412 H   0  0  0  0  0  0  0  0  0  0  0  0
   -5.1305   -0.1591    1.5031 H   0  0  0  0  0  0  0  0  0  0  0  0
   -2.1121    2.4820    3.0303 H   0  0  0  0  0  0  0  0  0  0  0  0
   -0.7434    2.1522    1.0159 H   0  0  0  0  0  0  0  0  0  0  0  0
  1  2  1  0
  2  3  1  0
  3  4  1  0
  4  5  1  0
  5  6  1  0
  6  7  1  0
  7  8  1  0
  8  9  1  0
  3 10  1  0
  1 11  1  0
 11 12  2  0
 12 13  1  0
 13 14  2  0
 14 15  1  0
 14 16  1  0
 16 17  2  0
  1 18  1  0
 18 19  2  0
 19 20  1  0
 20 21  2  0
 21 22  1  0
 21 23  1  0
 23 24  2  0
 17 11  1  0
 19 12  1  0
 24 18  1  0
  2 25  1  0
  2 26  1  0
  3 27  1  0
  4 28  1  0
  4 29  1  0
  5 30  1  0
  6 31  1  0
  6 32  1  0
  7 33  1  0
  7 34  1  0
  9 35  1  0
  9 36  1  0
  9 37  1  0
 10 38  1  0
 13 39  1  0
 16 40  1  0
 17 41  1  0
 20 42  1  0
 23 43  1  0
 24 44  1  0
M  END
>  <Batch_No>  (172) 
6965313

>  <EC50_nM>  (172) 
1010

>  <Set>  (172) 
Drug-like

>  <Molecular_Weight>  (172) 
367.2696

>  <ALogP>  (172) 
3.819

$$$$
MMV396681
     RDKit          3D

 48 52  0  0  0  0  0  0  0  0999 V2000
    0.0364   -2.1895    0.1566 N   0  0  0  0  0  0  0  0  0  0  0  0
    0.6381   -3.3491    0.2733 N   0  0  0  0  0  0  0  0  0  0  0  0
   -0.2308   -4.3051    0.6278 C   0  0  0  0  0  0  0  0  0  0  0  0
    0.0197   -5.7505    0.8670 C   0  0  0  0  0  0  0  0  0  0  0  0
   -1.4623   -3.6939    0.7394 C   0  0  0  0  0  0  0  0  0  0  0  0
   -1.2519   -2.3651    0.4353 C   0  0  0  0  0  0  0  0  0  0  0  0
   -2.2628   -1.3656    0.4290 N   0  0  0  0  0  0  0  0  0  0  0  0
   -2.6032   -0.5834    1.5598 C   0  0  0  0  0  0  0  0  0  0  0  0
   -1.9653   -0.7982    2.6200 O   0  0  0  0  0  0  0  0  0  0  0  0
   -3.6376    0.4418    1.5606 C   0  0  0  0  0  0  0  0  0  0  0  0
   -3.8461    1.1274    2.7412 C   0  0  0  0  0  0  0  0  0  0  0  0
   -4.8183    2.1088    2.7909 C   0  0  0  0  0  0  0  0  0  0  0  0
   -5.5836    2.4088    1.6657 C   0  0  0  0  0  0  0  0  0  0  0  0
   -5.3632    1.7155    0.4950 C   0  0  0  0  0  0  0  0  0  0  0  0
   -6.2097    2.0708   -0.6898 C   0  0  0  0  0  0  0  0  0  0  0  0
   -5.8317    1.2335   -1.7202 F   0  0  0  0  0  0  0  0  0  0  0  0
   -7.5357    1.8314   -0.4243 F   0  0  0  0  0  0  0  0  0  0  0  0
   -5.9562    3.3621   -1.0792 F   0  0  0  0  0  0  0  0  0  0  0  0
   -4.3947    0.7381    0.4463 C   0  0  0  0  0  0  0  0  0  0  0  0
    0.6980   -0.9953   -0.2049 C   0  0  0  0  0  0  0  0  0  0  0  0
   -0.2945    0.6111   -0.3311 S   0  0  0  0  0  0  0  0  0  0  0  0
    1.2016    1.5735   -0.8032 C   0  0  0  0  0  0  0  0  0  0  0  0
    2.2024    0.6025   -0.8031 C   0  0  0  0  0  0  0  0  0  0  0  0
    3.5967    1.0002   -1.1445 C   0  0  0  0  0  0  0  0  0  0  0  0
    4.6070    0.0666   -1.1530 C   0  0  0  0  0  0  0  0  0  0  0  0
    5.9180    0.3666   -1.4576 C   0  0  0  0  0  0  0  0  0  0  0  0
    6.2430    1.6783   -1.7731 C   0  0  0  0  0  0  0  0  0  0  0  0
    7.4017    2.3536   -2.1219 O   0  0  0  0  0  0  0  0  0  0  0  0
    7.1672    3.7155   -1.8499 C   0  0  0  0  0  0  0  0  0  0  0  0
    5.7626    3.8531   -2.1053 O   0  0  0  0  0  0  0  0  0  0  0  0
    5.2263    2.5991   -1.7609 C   0  0  0  0  0  0  0  0  0  0  0  0
    3.9179    2.2922   -1.4557 C   0  0  0  0  0  0  0  0  0  0  0  0
    1.8664   -0.6001   -0.5040 N   0  0  0  0  0  0  0  0  0  0  0  0
   -0.9128   -6.3386    0.7541 H   0  0  0  0  0  0  0  0  0  0  0  0
    0.7868   -6.1639    0.1836 H   0  0  0  0  0  0  0  0  0  0  0  0
    0.3662   -5.8519    1.9142 H   0  0  0  0  0  0  0  0  0  0  0  0
   -2.4066   -4.1454    1.0078 H   0  0  0  0  0  0  0  0  0  0  0  0
   -2.7782   -1.2059   -0.4645 H   0  0  0  0  0  0  0  0  0  0  0  0
   -3.2719    0.9220    3.6335 H   0  0  0  0  0  0  0  0  0  0  0  0
   -4.9779    2.6475    3.7291 H   0  0  0  0  0  0  0  0  0  0  0  0
   -6.3512    3.1817    1.6989 H   0  0  0  0  0  0  0  0  0  0  0  0
   -4.2425    0.2123   -0.4785 H   0  0  0  0  0  0  0  0  0  0  0  0
    1.2239    2.5810   -1.0046 H   0  0  0  0  0  0  0  0  0  0  0  0
    4.3726   -0.9636   -0.9093 H   0  0  0  0  0  0  0  0  0  0  0  0
    6.7134   -0.3589   -1.4661 H   0  0  0  0  0  0  0  0  0  0  0  0
    7.2911    3.8737   -0.7426 H   0  0  0  0  0  0  0  0  0  0  0  0
    7.7835    4.4127   -2.4192 H   0  0  0  0  0  0  0  0  0  0  0  0
    3.1485    3.0713   -1.4627 H   0  0  0  0  0  0  0  0  0  0  0  0
  1  2  1  0
  2  3  2  0
  3  4  1  0
  3  5  1  0
  5  6  2  0
  6  7  1  0
  7  8  1  0
  8  9  2  0
  8 10  1  0
 10 11  2  0
 11 12  1  0
 12 13  2  0
 13 14  1  0
 14 15  1  0
 15 16  1  0
 15 17  1  0
 15 18  1  0
 10 19  1  0
  1 20  1  0
 20 21  1  0
 21 22  1  0
 22 23  2  0
 23 24  1  0
 24 25  2  0
 25 26  1  0
 26 27  2  0
 27 28  1  0
 28 29  1  0
 29 30  1  0
 27 31  1  0
 24 32  1  0
 23 33  1  0
  6  1  1  0
 19 14  2  0
 33 20  2  0
 31 30  1  0
 32 31  2  0
  4 34  1  0
  4 35  1  0
  4 36  1  0
  5 37  1  0
  7 38  1  0
 11 39  1  0
 12 40  1  0
 13 41  1  0
 19 42  1  0
 22 43  1  0
 25 44  1  0
 26 45  1  0
 29 46  1  0
 29 47  1  0
 32 48  1  0
M  END
>  <Batch_No>  (173) 
OSSL_345968

>  <EC50_nM>  (173) 
959

>  <Set>  (173) 
Drug-like

>  <Molecular_Weight>  (173) 
472.4397

>  <ALogP>  (173) 
4.902

$$$$
MMV006587
     RDKit          3D

 44 47  0  0  0  0  0  0  0  0999 V2000
    2.2914   -0.6272    0.1329 C   0  0  0  0  0  0  0  0  0  0  0  0
    3.0230   -0.2507    1.2364 C   0  0  0  0  0  0  0  0  0  0  0  0
    2.6045   -0.6931    2.4346 N   0  0  0  0  0  0  0  0  0  0  0  0
    1.5214   -1.4716    2.5868 C   0  0  0  0  0  0  0  0  0  0  0  0
    0.8351   -1.8164    1.4857 N   0  0  0  0  0  0  0  0  0  0  0  0
    1.1528   -1.4387    0.2359 C   0  0  0  0  0  0  0  0  0  0  0  0
    0.4166   -1.8097   -0.9168 N   0  0  0  0  0  0  0  0  0  0  0  0
   -0.7640   -2.6361   -0.9114 C   0  0  0  0  0  0  0  0  0  0  0  0
   -1.8484   -1.9723   -0.0908 C   0  0  0  0  0  0  0  0  0  0  0  0
   -2.1215   -0.6367   -0.7228 C   0  0  0  0  0  0  0  0  0  0  0  0
   -3.1199    0.1522   -0.1077 N   0  0  0  0  0  0  0  0  0  0  0  0
   -4.4665   -0.2790   -0.1887 C   0  0  0  0  0  0  0  0  0  0  0  0
   -5.0340    0.1676   -1.5240 C   0  0  0  0  0  0  0  0  0  0  0  0
   -3.0026    1.5121   -0.5739 C   0  0  0  0  0  0  0  0  0  0  0  0
   -4.3484    2.2052   -0.6529 C   0  0  0  0  0  0  0  0  0  0  0  0
   -5.2368    1.5285   -1.4670 O   0  0  0  0  0  0  0  0  0  0  0  0
    4.0516    0.5313    0.7608 C   0  0  0  0  0  0  0  0  0  0  0  0
    3.9489    0.6299   -0.6083 C   0  0  0  0  0  0  0  0  0  0  0  0
    4.8512    1.3600   -1.3662 C   0  0  0  0  0  0  0  0  0  0  0  0
    5.8744    1.9986   -0.7111 C   0  0  0  0  0  0  0  0  0  0  0  0
    5.9710    1.8955    0.6596 C   0  0  0  0  0  0  0  0  0  0  0  0
    7.2785    2.7166    1.4628 Cl  0  0  0  0  0  0  0  0  0  0  0  0
    5.0745    1.1684    1.4276 C   0  0  0  0  0  0  0  0  0  0  0  0
    2.8732   -0.0807   -0.9710 N   0  0  0  0  0  0  0  0  0  0  0  0
    1.1964   -1.8221    3.5799 H   0  0  0  0  0  0  0  0  0  0  0  0
    0.7867   -1.4350   -1.8425 H   0  0  0  0  0  0  0  0  0  0  0  0
   -1.0758   -2.7917   -1.9613 H   0  0  0  0  0  0  0  0  0  0  0  0
   -0.4632   -3.5938   -0.4344 H   0  0  0  0  0  0  0  0  0  0  0  0
   -1.4552   -1.8500    0.9350 H   0  0  0  0  0  0  0  0  0  0  0  0
   -2.7435   -2.6143    0.0107 H   0  0  0  0  0  0  0  0  0  0  0  0
   -2.3186   -0.7153   -1.8131 H   0  0  0  0  0  0  0  0  0  0  0  0
   -1.1629   -0.0547   -0.6678 H   0  0  0  0  0  0  0  0  0  0  0  0
   -5.0488    0.2645    0.5914 H   0  0  0  0  0  0  0  0  0  0  0  0
   -4.6247   -1.3565    0.0020 H   0  0  0  0  0  0  0  0  0  0  0  0
   -4.2299   -0.0154   -2.2647 H   0  0  0  0  0  0  0  0  0  0  0  0
   -5.9343   -0.4106   -1.7217 H   0  0  0  0  0  0  0  0  0  0  0  0
   -2.5584    1.5878   -1.5883 H   0  0  0  0  0  0  0  0  0  0  0  0
   -2.3932    2.1354    0.1153 H   0  0  0  0  0  0  0  0  0  0  0  0
   -4.7320    2.3860    0.3713 H   0  0  0  0  0  0  0  0  0  0  0  0
   -4.1570    3.1961   -1.1119 H   0  0  0  0  0  0  0  0  0  0  0  0
    4.7764    1.4416   -2.4413 H   0  0  0  0  0  0  0  0  0  0  0  0
    6.5806    2.5710   -1.3118 H   0  0  0  0  0  0  0  0  0  0  0  0
    5.1742    1.1030    2.5113 H   0  0  0  0  0  0  0  0  0  0  0  0
    2.5573   -0.1798   -1.9604 H   0  0  0  0  0  0  0  0  0  0  0  0
  1  2  1  0
  2  3  2  0
  3  4  1  0
  4  5  2  0
  5  6  1  0
  6  7  1  0
  7  8  1  0
  8  9  1  0
  9 10  1  0
 10 11  1  0
 11 12  1  0
 12 13  1  0
 11 14  1  0
 14 15  1  0
 15 16  1  0
  2 17  1  0
 17 18  2  0
 18 19  1  0
 19 20  2  0
 20 21  1  0
 21 22  1  0
 21 23  2  0
 18 24  1  0
  6  1  2  0
 24  1  1  0
 16 13  1  0
 23 17  1  0
  4 25  1  0
  7 26  1  0
  8 27  1  0
  8 28  1  0
  9 29  1  0
  9 30  1  0
 10 31  1  0
 10 32  1  0
 12 33  1  0
 12 34  1  0
 13 35  1  0
 13 36  1  0
 14 37  1  0
 14 38  1  0
 15 39  1  0
 15 40  1  0
 19 41  1  0
 20 42  1  0
 23 43  1  0
 24 44  1  0
M  END
>  <Batch_No>  (174) 
STK552090

>  <EC50_nM>  (174) 
700

>  <Set>  (174) 
Drug-like

>  <Molecular_Weight>  (174) 
345.8266

>  <ALogP>  (174) 
2.401

$$$$
MMV019202
     RDKit          3D

 46 49  0  0  0  0  0  0  0  0999 V2000
   -5.4682   -0.9807    5.2629 C   0  0  0  0  0  0  0  0  0  0  0  0
   -6.0758   -1.5355    3.9816 C   0  0  0  0  0  0  0  0  0  0  0  0
   -5.1750   -1.4019    2.9776 O   0  0  0  0  0  0  0  0  0  0  0  0
   -5.0776   -1.6618    1.7058 C   0  0  0  0  0  0  0  0  0  0  0  0
   -6.0561   -2.2410    0.8893 C   0  0  0  0  0  0  0  0  0  0  0  0
   -5.8192   -2.4634   -0.4434 C   0  0  0  0  0  0  0  0  0  0  0  0
   -4.6333   -2.1434   -1.0596 C   0  0  0  0  0  0  0  0  0  0  0  0
   -3.6529   -1.5759   -0.2823 C   0  0  0  0  0  0  0  0  0  0  0  0
   -3.8627   -1.3409    1.0496 C   0  0  0  0  0  0  0  0  0  0  0  0
   -2.3322   -1.2423   -0.8692 C   0  0  0  0  0  0  0  0  0  0  0  0
   -2.0970   -1.6866   -2.0098 O   0  0  0  0  0  0  0  0  0  0  0  0
   -1.3771   -0.4693   -0.1907 N   0  0  0  0  0  0  0  0  0  0  0  0
   -0.0962   -0.1093   -0.6200 C   0  0  0  0  0  0  0  0  0  0  0  0
    0.5330   -0.4869   -1.7749 C   0  0  0  0  0  0  0  0  0  0  0  0
    1.8363   -0.0738   -2.0917 C   0  0  0  0  0  0  0  0  0  0  0  0
    2.5455    0.7353   -1.2495 C   0  0  0  0  0  0  0  0  0  0  0  0
    1.9276    1.1212   -0.0862 C   0  0  0  0  0  0  0  0  0  0  0  0
    0.6567    0.7250    0.2311 C   0  0  0  0  0  0  0  0  0  0  0  0
    3.9060    1.1934   -1.4856 C   0  0  0  0  0  0  0  0  0  0  0  0
    4.7001    0.8294   -2.5397 N   0  0  0  0  0  0  0  0  0  0  0  0
    5.8835    1.4636   -2.3787 C   0  0  0  0  0  0  0  0  0  0  0  0
    7.0700    1.4963   -3.0894 C   0  0  0  0  0  0  0  0  0  0  0  0
    8.1582    2.2436   -2.6835 C   0  0  0  0  0  0  0  0  0  0  0  0
    8.0534    2.9970   -1.5040 C   0  0  0  0  0  0  0  0  0  0  0  0
    6.8875    2.9883   -0.7693 C   0  0  0  0  0  0  0  0  0  0  0  0
    5.8373    2.2309   -1.2168 C   0  0  0  0  0  0  0  0  0  0  0  0
    4.6309    2.0313   -0.7222 N   0  0  0  0  0  0  0  0  0  0  0  0
   -4.5284   -1.4915    5.5275 H   0  0  0  0  0  0  0  0  0  0  0  0
   -5.2173    0.1062    5.1098 H   0  0  0  0  0  0  0  0  0  0  0  0
   -6.2022   -1.0688    6.0570 H   0  0  0  0  0  0  0  0  0  0  0  0
   -6.3251   -2.6214    4.1089 H   0  0  0  0  0  0  0  0  0  0  0  0
   -7.0581   -1.0260    3.8583 H   0  0  0  0  0  0  0  0  0  0  0  0
   -6.9891   -2.4876    1.3694 H   0  0  0  0  0  0  0  0  0  0  0  0
   -6.5810   -2.9104   -1.0878 H   0  0  0  0  0  0  0  0  0  0  0  0
   -4.4562   -2.3330   -2.1033 H   0  0  0  0  0  0  0  0  0  0  0  0
   -3.1286   -0.8865    1.7107 H   0  0  0  0  0  0  0  0  0  0  0  0
   -1.6730   -0.1173    0.7669 H   0  0  0  0  0  0  0  0  0  0  0  0
    0.0162   -1.1247   -2.4738 H   0  0  0  0  0  0  0  0  0  0  0  0
    2.2842   -0.3930   -3.0211 H   0  0  0  0  0  0  0  0  0  0  0  0
    2.4527    1.7593    0.6096 H   0  0  0  0  0  0  0  0  0  0  0  0
    0.2433    1.0849    1.1739 H   0  0  0  0  0  0  0  0  0  0  0  0
    7.1966    0.9260   -4.0156 H   0  0  0  0  0  0  0  0  0  0  0  0
    9.0896    2.2918   -3.2130 H   0  0  0  0  0  0  0  0  0  0  0  0
    8.8853    3.5955   -1.1479 H   0  0  0  0  0  0  0  0  0  0  0  0
    6.8033    3.5774    0.1507 H   0  0  0  0  0  0  0  0  0  0  0  0
    4.2853    2.4766    0.1754 H   0  0  0  0  0  0  0  0  0  0  0  0
  1  2  1  0
  2  3  1  0
  3  4  1  0
  4  5  2  0
  5  6  1  0
  6  7  2  0
  7  8  1  0
  8  9  2  0
  8 10  1  0
 10 11  2  0
 10 12  1  0
 12 13  1  0
 13 14  2  0
 14 15  1  0
 15 16  2  0
 16 17  1  0
 17 18  2  0
 16 19  1  0
 19 20  2  0
 20 21  1  0
 21 22  2  0
 22 23  1  0
 23 24  2  0
 24 25  1  0
 25 26  2  0
 26 27  1  0
  9  4  1  0
 18 13  1  0
 27 19  1  0
 26 21  1  0
  1 28  1  0
  1 29  1  0
  1 30  1  0
  2 31  1  0
  2 32  1  0
  5 33  1  0
  6 34  1  0
  7 35  1  0
  9 36  1  0
 12 37  1  0
 14 38  1  0
 15 39  1  0
 17 40  1  0
 18 41  1  0
 22 42  1  0
 23 43  1  0
 24 44  1  0
 25 45  1  0
 27 46  1  0
M  END
>  <Batch_No>  (175) 
STK391606

>  <EC50_nM>  (175) 
ND

>  <Set>  (175) 
Drug-like

>  <Molecular_Weight>  (175) 
357.40516

>  <ALogP>  (175) 
4.387

$$$$
MMV000848
     RDKit          3D

 47 50  0  0  0  0  0  0  0  0999 V2000
    0.0898    1.3585    0.8779 O   0  0  0  0  0  0  0  0  0  0  0  0
    0.2440    0.8850   -0.4215 C   0  0  0  0  0  0  0  0  0  0  0  0
    1.7132    0.7043   -0.7325 C   0  0  0  0  0  0  0  0  0  0  0  0
    2.3400   -0.2209    0.1537 N   0  0  0  0  0  0  0  0  0  0  0  0
    3.7561   -0.4002   -0.1190 C   0  0  0  0  0  0  0  0  0  0  0  0
    4.4914    0.8925    0.0234 C   0  0  0  0  0  0  0  0  0  0  0  0
    5.6112    0.6690    1.0010 C   0  0  0  0  0  0  0  0  0  0  0  0
    5.7190   -0.8162    1.2255 C   0  0  0  0  0  0  0  0  0  0  0  0
    4.2970   -1.2843    1.0137 C   0  0  0  0  0  0  0  0  0  0  0  0
   -0.4876   -0.4039   -0.6455 C   0  0  0  0  0  0  0  0  0  0  0  0
   -1.9158   -0.2677   -0.4234 N   0  0  0  0  0  0  0  0  0  0  0  0
   -2.7701    0.0760   -1.4282 C   0  0  0  0  0  0  0  0  0  0  0  0
   -2.5854    0.3602   -2.7675 C   0  0  0  0  0  0  0  0  0  0  0  0
   -3.6630    0.6904   -3.5877 C   0  0  0  0  0  0  0  0  0  0  0  0
   -4.9383    0.7322   -3.0428 C   0  0  0  0  0  0  0  0  0  0  0  0
   -5.1530    0.4526   -1.7070 C   0  0  0  0  0  0  0  0  0  0  0  0
   -4.0544    0.1246   -0.9083 C   0  0  0  0  0  0  0  0  0  0  0  0
   -3.9311   -0.2018    0.4380 C   0  0  0  0  0  0  0  0  0  0  0  0
   -4.9080   -0.2968    1.4065 C   0  0  0  0  0  0  0  0  0  0  0  0
   -4.5248   -0.6454    2.7014 C   0  0  0  0  0  0  0  0  0  0  0  0
   -3.1924   -0.8840    2.9780 C   0  0  0  0  0  0  0  0  0  0  0  0
   -2.2040   -0.7889    2.0029 C   0  0  0  0  0  0  0  0  0  0  0  0
   -2.6140   -0.4388    0.7166 C   0  0  0  0  0  0  0  0  0  0  0  0
    0.4693    0.6593    1.4978 H   0  0  0  0  0  0  0  0  0  0  0  0
   -0.1913    1.7112   -1.0641 H   0  0  0  0  0  0  0  0  0  0  0  0
    1.8486    0.3871   -1.8092 H   0  0  0  0  0  0  0  0  0  0  0  0
    2.1843    1.7147   -0.7064 H   0  0  0  0  0  0  0  0  0  0  0  0
    1.8642   -1.1225    0.2503 H   0  0  0  0  0  0  0  0  0  0  0  0
    3.9753   -0.8311   -1.1033 H   0  0  0  0  0  0  0  0  0  0  0  0
    3.8860    1.7378    0.4106 H   0  0  0  0  0  0  0  0  0  0  0  0
    4.9516    1.2540   -0.9348 H   0  0  0  0  0  0  0  0  0  0  0  0
    5.4272    1.1840    1.9888 H   0  0  0  0  0  0  0  0  0  0  0  0
    6.5886    1.0074    0.5970 H   0  0  0  0  0  0  0  0  0  0  0  0
    5.9721   -1.0597    2.2813 H   0  0  0  0  0  0  0  0  0  0  0  0
    6.4310   -1.3304    0.5692 H   0  0  0  0  0  0  0  0  0  0  0  0
    4.2087   -2.3351    0.7350 H   0  0  0  0  0  0  0  0  0  0  0  0
    3.7422   -1.0289    1.9552 H   0  0  0  0  0  0  0  0  0  0  0  0
   -0.1489   -1.1220    0.1538 H   0  0  0  0  0  0  0  0  0  0  0  0
   -0.2507   -0.8758   -1.6116 H   0  0  0  0  0  0  0  0  0  0  0  0
   -1.5915    0.3276   -3.1917 H   0  0  0  0  0  0  0  0  0  0  0  0
   -3.4756    0.9064   -4.6332 H   0  0  0  0  0  0  0  0  0  0  0  0
   -5.7503    0.9889   -3.6952 H   0  0  0  0  0  0  0  0  0  0  0  0
   -6.1522    0.4845   -1.2760 H   0  0  0  0  0  0  0  0  0  0  0  0
   -5.9532   -0.1061    1.1741 H   0  0  0  0  0  0  0  0  0  0  0  0
   -5.3000   -0.7192    3.4626 H   0  0  0  0  0  0  0  0  0  0  0  0
   -2.8882   -1.1550    3.9810 H   0  0  0  0  0  0  0  0  0  0  0  0
   -1.1669   -0.9733    2.2133 H   0  0  0  0  0  0  0  0  0  0  0  0
  1  2  1  0
  2  3  1  0
  3  4  1  0
  4  5  1  0
  5  6  1  0
  6  7  1  0
  7  8  1  0
  8  9  1  0
  2 10  1  0
 10 11  1  0
 11 12  1  0
 12 13  2  0
 13 14  1  0
 14 15  2  0
 15 16  1  0
 16 17  2  0
 17 18  1  0
 18 19  2  0
 19 20  1  0
 20 21  2  0
 21 22  1  0
 22 23  2  0
  9  5  1  0
 23 11  1  0
 17 12  1  0
 23 18  1  0
  1 24  1  0
  2 25  1  0
  3 26  1  0
  3 27  1  0
  4 28  1  0
  5 29  1  0
  6 30  1  0
  6 31  1  0
  7 32  1  0
  7 33  1  0
  8 34  1  0
  8 35  1  0
  9 36  1  0
  9 37  1  0
 10 38  1  0
 10 39  1  0
 13 40  1  0
 14 41  1  0
 15 42  1  0
 16 43  1  0
 19 44  1  0
 20 45  1  0
 21 46  1  0
 22 47  1  0
M  END
>  <Batch_No>  (176) 
STK927476

>  <EC50_nM>  (176) 
660

>  <Set>  (176) 
Drug-like

>  <Molecular_Weight>  (176) 
308.41735

>  <ALogP>  (176) 
4.023

$$$$
MMV020275
     RDKit          3D

 58 62  0  0  0  0  0  0  0  0999 V2000
    1.2916    3.7507   -3.2590 Cl  0  0  0  0  0  0  0  0  0  0  0  0
    2.5165    2.7889   -2.4690 C   0  0  0  0  0  0  0  0  0  0  0  0
    3.8353    3.1706   -2.6304 C   0  0  0  0  0  0  0  0  0  0  0  0
    4.7813    2.3951   -1.9935 C   0  0  0  0  0  0  0  0  0  0  0  0
    4.4006    1.2969   -1.2399 C   0  0  0  0  0  0  0  0  0  0  0  0
    5.3870    0.5947   -0.6636 N   0  0  0  0  0  0  0  0  0  0  0  0
    5.1114   -0.4933    0.0831 C   0  0  0  0  0  0  0  0  0  0  0  0
    3.8091   -0.8778    0.2496 C   0  0  0  0  0  0  0  0  0  0  0  0
    2.7331   -0.1877   -0.3257 C   0  0  0  0  0  0  0  0  0  0  0  0
    1.3764   -0.6185   -0.1724 C   0  0  0  0  0  0  0  0  0  0  0  0
    1.1280   -1.8395   -0.4845 O   0  0  0  0  0  0  0  0  0  0  0  0
    0.2809    0.1385    0.2769 N   0  0  0  0  0  0  0  0  0  0  0  0
   -1.0151   -0.5525    0.3264 C   0  0  0  0  0  0  0  0  0  0  0  0
   -1.8298    0.0847    1.4028 C   0  0  0  0  0  0  0  0  0  0  0  0
   -3.3298    0.0116    1.1817 C   0  0  0  0  0  0  0  0  0  0  0  0
   -3.7226    0.3287   -0.1457 N   0  0  0  0  0  0  0  0  0  0  0  0
   -4.7019   -0.4914   -0.7633 C   0  0  0  0  0  0  0  0  0  0  0  0
   -6.0470   -0.3188   -0.1714 C   0  0  0  0  0  0  0  0  0  0  0  0
   -6.5376   -1.0335    0.8854 C   0  0  0  0  0  0  0  0  0  0  0  0
   -7.8238   -0.7497    1.3061 C   0  0  0  0  0  0  0  0  0  0  0  0
   -8.6253    0.2013    0.7258 C   0  0  0  0  0  0  0  0  0  0  0  0
   -8.1299    0.9224   -0.3409 C   0  0  0  0  0  0  0  0  0  0  0  0
   -6.8559    0.6389   -0.7549 C   0  0  0  0  0  0  0  0  0  0  0  0
   -2.6694    0.7562   -1.0229 C   0  0  0  0  0  0  0  0  0  0  0  0
   -1.6103   -0.3070   -1.0760 C   0  0  0  0  0  0  0  0  0  0  0  0
    3.0828    0.9338   -1.0915 C   0  0  0  0  0  0  0  0  0  0  0  0
    2.1280    1.6992   -1.7211 C   0  0  0  0  0  0  0  0  0  0  0  0
    6.2498   -1.2087    0.6430 C   0  0  0  0  0  0  0  0  0  0  0  0
    7.5233   -0.7614    0.3848 C   0  0  0  0  0  0  0  0  0  0  0  0
    8.6716   -1.3529    0.8556 C   0  0  0  0  0  0  0  0  0  0  0  0
    8.5121   -2.4534    1.6261 N   0  0  0  0  0  0  0  0  0  0  0  0
    7.2789   -2.9214    1.8997 C   0  0  0  0  0  0  0  0  0  0  0  0
    6.1260   -2.3327    1.4308 C   0  0  0  0  0  0  0  0  0  0  0  0
    4.1169    4.0346   -3.2219 H   0  0  0  0  0  0  0  0  0  0  0  0
    5.8470    2.6510   -2.0830 H   0  0  0  0  0  0  0  0  0  0  0  0
    3.5698   -1.7413    0.8424 H   0  0  0  0  0  0  0  0  0  0  0  0
    0.3971    1.1325    0.5656 H   0  0  0  0  0  0  0  0  0  0  0  0
   -0.8499   -1.6453    0.4112 H   0  0  0  0  0  0  0  0  0  0  0  0
   -1.5966   -0.4181    2.3633 H   0  0  0  0  0  0  0  0  0  0  0  0
   -1.5411    1.1641    1.4677 H   0  0  0  0  0  0  0  0  0  0  0  0
   -3.7839    0.7448    1.8759 H   0  0  0  0  0  0  0  0  0  0  0  0
   -3.6990   -0.9842    1.5497 H   0  0  0  0  0  0  0  0  0  0  0  0
   -4.4046   -1.5741   -0.6456 H   0  0  0  0  0  0  0  0  0  0  0  0
   -4.7536   -0.2602   -1.8668 H   0  0  0  0  0  0  0  0  0  0  0  0
   -5.9256   -1.7836    1.3559 H   0  0  0  0  0  0  0  0  0  0  0  0
   -8.2617   -1.2917    2.1496 H   0  0  0  0  0  0  0  0  0  0  0  0
   -9.6293    0.4336    1.0439 H   0  0  0  0  0  0  0  0  0  0  0  0
   -8.7178    1.6909   -0.8431 H   0  0  0  0  0  0  0  0  0  0  0  0
   -6.4879    1.2298   -1.6069 H   0  0  0  0  0  0  0  0  0  0  0  0
   -2.3128    1.7228   -0.6505 H   0  0  0  0  0  0  0  0  0  0  0  0
   -3.1008    0.8436   -2.0345 H   0  0  0  0  0  0  0  0  0  0  0  0
   -0.8429   -0.0106   -1.8018 H   0  0  0  0  0  0  0  0  0  0  0  0
   -2.0892   -1.2384   -1.4605 H   0  0  0  0  0  0  0  0  0  0  0  0
    1.0833    1.4338   -1.6348 H   0  0  0  0  0  0  0  0  0  0  0  0
    7.6809    0.1306   -0.2390 H   0  0  0  0  0  0  0  0  0  0  0  0
    9.6442   -0.9404    0.6080 H   0  0  0  0  0  0  0  0  0  0  0  0
    7.1856   -3.8108    2.5224 H   0  0  0  0  0  0  0  0  0  0  0  0
    5.1471   -2.7254    1.6614 H   0  0  0  0  0  0  0  0  0  0  0  0
  1  2  1  0
  2  3  2  0
  3  4  1  0
  4  5  2  0
  5  6  1  0
  6  7  2  0
  7  8  1  0
  8  9  2  0
  9 10  1  0
 10 11  2  0
 10 12  1  0
 12 13  1  0
 13 14  1  0
 14 15  1  0
 15 16  1  0
 16 17  1  0
 17 18  1  0
 18 19  2  0
 19 20  1  0
 20 21  2  0
 21 22  1  0
 22 23  2  0
 16 24  1  0
 24 25  1  0
  9 26  1  0
 26 27  2  0
  7 28  1  0
 28 29  2  0
 29 30  1  0
 30 31  2  0
 31 32  1  0
 32 33  2  0
 27  2  1  0
 26  5  1  0
 25 13  1  0
 23 18  1  0
 33 28  1  0
  3 34  1  0
  4 35  1  0
  8 36  1  0
 12 37  1  0
 13 38  1  0
 14 39  1  0
 14 40  1  0
 15 41  1  0
 15 42  1  0
 17 43  1  0
 17 44  1  0
 19 45  1  0
 20 46  1  0
 21 47  1  0
 22 48  1  0
 23 49  1  0
 24 50  1  0
 24 51  1  0
 25 52  1  0
 25 53  1  0
 27 54  1  0
 29 55  1  0
 30 56  1  0
 32 57  1  0
 33 58  1  0
M  END
>  <Batch_No>  (177) 
STK446932

>  <EC50_nM>  (177) 
1020

>  <Set>  (177) 
Drug-like

>  <Molecular_Weight>  (177) 
456.9666

>  <ALogP>  (177) 
4.379

$$$$
MMV019918
     RDKit          3D

 42 44  0  0  0  0  0  0  0  0999 V2000
    5.7887   -2.5651   -0.7565 Cl  0  0  0  0  0  0  0  0  0  0  0  0
    5.5924   -0.9882   -0.0831 C   0  0  0  0  0  0  0  0  0  0  0  0
    6.7180   -0.4118    0.5235 C   0  0  0  0  0  0  0  0  0  0  0  0
    6.6723    0.8403    1.0913 C   0  0  0  0  0  0  0  0  0  0  0  0
    8.1912    1.6239    1.9125 Br  0  0  0  0  0  0  0  0  0  0  0  0
    5.4722    1.5067    1.0396 C   0  0  0  0  0  0  0  0  0  0  0  0
    4.3838    0.9471    0.4520 C   0  0  0  0  0  0  0  0  0  0  0  0
    4.3949   -0.3211   -0.1337 C   0  0  0  0  0  0  0  0  0  0  0  0
    3.1802   -0.8325   -0.7369 C   0  0  0  0  0  0  0  0  0  0  0  0
    2.0566   -0.1516   -0.7588 O   0  0  0  0  0  0  0  0  0  0  0  0
    1.0885   -0.7944   -1.3487 C   0  0  0  0  0  0  0  0  0  0  0  0
   -0.3065   -0.3305   -1.5531 C   0  0  0  0  0  0  0  0  0  0  0  0
   -1.1637   -0.7156   -0.4394 N   0  0  0  0  0  0  0  0  0  0  0  0
   -2.4682   -0.2250   -0.7357 C   0  0  0  0  0  0  0  0  0  0  0  0
   -3.5158   -0.5239    0.3082 C   0  0  0  0  0  0  0  0  0  0  0  0
   -3.2211    0.0394    1.6417 C   0  0  0  0  0  0  0  0  0  0  0  0
   -3.6519    1.4614    1.8521 C   0  0  0  0  0  0  0  0  0  0  0  0
   -4.4985    1.9699    0.8077 N   0  0  0  0  0  0  0  0  0  0  0  0
   -5.5091    1.0039    0.5107 C   0  0  0  0  0  0  0  0  0  0  0  0
   -4.8511   -0.1238   -0.2574 C   0  0  0  0  0  0  0  0  0  0  0  0
    1.5634   -2.0169   -1.7737 C   0  0  0  0  0  0  0  0  0  0  0  0
    2.9022   -2.0125   -1.3687 C   0  0  0  0  0  0  0  0  0  0  0  0
    7.6489   -0.9559    0.5509 H   0  0  0  0  0  0  0  0  0  0  0  0
    5.4057    2.4882    1.4755 H   0  0  0  0  0  0  0  0  0  0  0  0
    3.4604    1.5487    0.4535 H   0  0  0  0  0  0  0  0  0  0  0  0
   -0.6748   -0.7614   -2.5067 H   0  0  0  0  0  0  0  0  0  0  0  0
   -0.3335    0.7786   -1.7104 H   0  0  0  0  0  0  0  0  0  0  0  0
   -0.7219   -0.3284    0.4028 H   0  0  0  0  0  0  0  0  0  0  0  0
   -2.3732    0.8855   -0.8698 H   0  0  0  0  0  0  0  0  0  0  0  0
   -2.7591   -0.5937   -1.7397 H   0  0  0  0  0  0  0  0  0  0  0  0
   -3.5255   -1.6358    0.3925 H   0  0  0  0  0  0  0  0  0  0  0  0
   -2.1447   -0.1150    1.8644 H   0  0  0  0  0  0  0  0  0  0  0  0
   -3.7576   -0.5788    2.4195 H   0  0  0  0  0  0  0  0  0  0  0  0
   -2.8045    2.1775    1.9379 H   0  0  0  0  0  0  0  0  0  0  0  0
   -4.2113    1.5961    2.8046 H   0  0  0  0  0  0  0  0  0  0  0  0
   -4.0260    2.3953    0.0061 H   0  0  0  0  0  0  0  0  0  0  0  0
   -6.2784    1.4420   -0.1559 H   0  0  0  0  0  0  0  0  0  0  0  0
   -5.9198    0.6207    1.4529 H   0  0  0  0  0  0  0  0  0  0  0  0
   -5.5832   -0.9555   -0.2637 H   0  0  0  0  0  0  0  0  0  0  0  0
   -4.7778    0.2192   -1.3126 H   0  0  0  0  0  0  0  0  0  0  0  0
    1.0109   -2.7706   -2.2901 H   0  0  0  0  0  0  0  0  0  0  0  0
    3.5469   -2.8362   -1.5573 H   0  0  0  0  0  0  0  0  0  0  0  0
  1  2  1  0
  2  3  2  0
  3  4  1  0
  4  5  1  0
  4  6  2  0
  6  7  1  0
  7  8  2  0
  8  9  1  0
  9 10  1  0
 10 11  1  0
 11 12  1  0
 12 13  1  0
 13 14  1  0
 14 15  1  0
 15 16  1  0
 16 17  1  0
 17 18  1  0
 18 19  1  0
 19 20  1  0
 11 21  2  0
 21 22  1  0
  8  2  1  0
 22  9  2  0
 20 15  1  0
  3 23  1  0
  6 24  1  0
  7 25  1  0
 12 26  1  0
 12 27  1  0
 13 28  1  0
 14 29  1  0
 14 30  1  0
 15 31  1  0
 16 32  1  0
 16 33  1  0
 17 34  1  0
 17 35  1  0
 18 36  1  0
 19 37  1  0
 19 38  1  0
 20 39  1  0
 20 40  1  0
 21 41  1  0
 22 42  1  0
M  END
>  <Batch_No>  (178) 
STK285909

>  <EC50_nM>  (178) 
800.5

>  <Set>  (178) 
Drug-like

>  <Molecular_Weight>  (178) 
383.71049

>  <ALogP>  (178) 
3.925

$$$$
MMV075490
     RDKit          3D

 40 42  0  0  0  0  0  0  0  0999 V2000
   -5.7376   -0.0632    0.0183 C   0  0  0  0  0  0  0  0  0  0  0  0
   -5.3890   -0.1733   -1.4503 C   0  0  0  0  0  0  0  0  0  0  0  0
   -4.2009    0.5408   -1.6972 O   0  0  0  0  0  0  0  0  0  0  0  0
   -2.9780    0.2828   -1.1077 C   0  0  0  0  0  0  0  0  0  0  0  0
   -1.9095    1.0836   -1.4645 C   0  0  0  0  0  0  0  0  0  0  0  0
   -0.6439    0.9273   -0.9484 C   0  0  0  0  0  0  0  0  0  0  0  0
   -0.4323   -0.0633   -0.0425 C   0  0  0  0  0  0  0  0  0  0  0  0
   -1.5025   -0.8747    0.3229 C   0  0  0  0  0  0  0  0  0  0  0  0
   -2.7609   -0.7169   -0.1924 C   0  0  0  0  0  0  0  0  0  0  0  0
    0.8654   -0.3223    0.5706 C   0  0  0  0  0  0  0  0  0  0  0  0
    1.5851    0.8294    1.0379 N   0  0  0  0  0  0  0  0  0  0  0  0
    1.1492    2.1563    1.3841 C   0  0  0  0  0  0  0  0  0  0  0  0
    2.9568    0.4146    1.1174 C   0  0  0  0  0  0  0  0  0  0  0  0
    4.0495    0.8420    1.8646 C   0  0  0  0  0  0  0  0  0  0  0  0
    5.2884    0.2108    1.7049 C   0  0  0  0  0  0  0  0  0  0  0  0
    5.4327   -0.8430    0.8019 C   0  0  0  0  0  0  0  0  0  0  0  0
    4.3371   -1.2692    0.0549 C   0  0  0  0  0  0  0  0  0  0  0  0
    3.1132   -0.6434    0.2146 C   0  0  0  0  0  0  0  0  0  0  0  0
    1.8399   -0.8498   -0.3928 N   0  0  0  0  0  0  0  0  0  0  0  0
    1.5842   -1.4498   -1.6787 C   0  0  0  0  0  0  0  0  0  0  0  0
   -4.9921    0.5145    0.5967 H   0  0  0  0  0  0  0  0  0  0  0  0
   -5.9155   -1.0491    0.4893 H   0  0  0  0  0  0  0  0  0  0  0  0
   -6.6981    0.5075    0.0989 H   0  0  0  0  0  0  0  0  0  0  0  0
   -6.1805    0.2445   -2.0797 H   0  0  0  0  0  0  0  0  0  0  0  0
   -5.3190   -1.2572   -1.6854 H   0  0  0  0  0  0  0  0  0  0  0  0
   -2.0597    1.8740   -2.1816 H   0  0  0  0  0  0  0  0  0  0  0  0
    0.1804    1.5717   -1.2463 H   0  0  0  0  0  0  0  0  0  0  0  0
   -1.3427   -1.6738    1.0502 H   0  0  0  0  0  0  0  0  0  0  0  0
   -3.5651   -1.3509    0.1028 H   0  0  0  0  0  0  0  0  0  0  0  0
    0.7892   -1.0162    1.4327 H   0  0  0  0  0  0  0  0  0  0  0  0
    1.0585    2.2685    2.4987 H   0  0  0  0  0  0  0  0  0  0  0  0
    1.8576    2.9502    1.0694 H   0  0  0  0  0  0  0  0  0  0  0  0
    0.1673    2.4353    0.9929 H   0  0  0  0  0  0  0  0  0  0  0  0
    3.9230    1.6633    2.5637 H   0  0  0  0  0  0  0  0  0  0  0  0
    6.1446    0.5568    2.3003 H   0  0  0  0  0  0  0  0  0  0  0  0
    6.3965   -1.3405    0.6719 H   0  0  0  0  0  0  0  0  0  0  0  0
    4.4121   -2.0795   -0.6513 H   0  0  0  0  0  0  0  0  0  0  0  0
    0.6134   -2.0119   -1.7181 H   0  0  0  0  0  0  0  0  0  0  0  0
    2.3813   -2.1574   -1.9458 H   0  0  0  0  0  0  0  0  0  0  0  0
    1.5019   -0.6683   -2.4767 H   0  0  0  0  0  0  0  0  0  0  0  0
  1  2  1  0
  2  3  1  0
  3  4  1  0
  4  5  2  0
  5  6  1  0
  6  7  2  0
  7  8  1  0
  8  9  2  0
  7 10  1  0
 10 11  1  0
 11 12  1  0
 11 13  1  0
 13 14  2  0
 14 15  1  0
 15 16  2  0
 16 17  1  0
 17 18  2  0
 18 19  1  0
 19 20  1  0
  9  4  1  0
 19 10  1  0
 18 13  1  0
  1 21  1  0
  1 22  1  0
  1 23  1  0
  2 24  1  0
  2 25  1  0
  5 26  1  0
  6 27  1  0
  8 28  1  0
  9 29  1  0
 10 30  1  0
 12 31  1  0
 12 32  1  0
 12 33  1  0
 14 34  1  0
 15 35  1  0
 16 36  1  0
 17 37  1  0
 20 38  1  0
 20 39  1  0
 20 40  1  0
M  END
>  <Batch_No>  (179) 
STK833729

>  <EC50_nM>  (179) 
941

>  <Set>  (179) 
Drug-like

>  <Molecular_Weight>  (179) 
268.3535

>  <ALogP>  (179) 
4.088

$$$$
MMV396633
     RDKit          3D

 51 52  0  0  0  0  0  0  0  0999 V2000
   -3.7021   -1.2243   -0.4338 C   0  0  0  0  0  0  0  0  0  0  0  0
   -5.0608   -1.1946   -0.6555 O   0  0  0  0  0  0  0  0  0  0  0  0
   -6.0410   -1.2892    0.3494 C   0  0  0  0  0  0  0  0  0  0  0  0
   -7.4264   -1.2214   -0.2509 C   0  0  0  0  0  0  0  0  0  0  0  0
   -3.0295   -0.0199   -0.2039 C   0  0  0  0  0  0  0  0  0  0  0  0
   -3.7780    1.1703   -0.2102 O   0  0  0  0  0  0  0  0  0  0  0  0
   -3.0327    2.3643    0.0305 C   0  0  0  0  0  0  0  0  0  0  0  0
   -3.9432    3.5749   -0.0005 C   0  0  0  0  0  0  0  0  0  0  0  0
   -1.6797   -0.0018    0.0209 C   0  0  0  0  0  0  0  0  0  0  0  0
   -0.9659   -1.2064    0.0201 C   0  0  0  0  0  0  0  0  0  0  0  0
   -1.5908   -2.4002   -0.2008 C   0  0  0  0  0  0  0  0  0  0  0  0
   -2.9632   -2.3917   -0.4268 C   0  0  0  0  0  0  0  0  0  0  0  0
   -3.8285   -3.8830   -0.7169 Cl  0  0  0  0  0  0  0  0  0  0  0  0
    0.4956   -1.0907    0.2727 C   0  0  0  0  0  0  0  0  0  0  0  0
    1.2657   -0.9191   -0.9039 N   0  0  0  0  0  0  0  0  0  0  0  0
    2.6777   -0.8128   -0.7471 C   0  0  0  0  0  0  0  0  0  0  0  0
    3.3186   -0.6406   -2.1052 C   0  0  0  0  0  0  0  0  0  0  0  0
    3.0624    0.3341    0.1661 C   0  0  0  0  0  0  0  0  0  0  0  0
    2.6151    1.5503   -0.3130 O   0  0  0  0  0  0  0  0  0  0  0  0
    4.5306    0.4112    0.3604 C   0  0  0  0  0  0  0  0  0  0  0  0
    5.4098   -0.5673   -0.0471 C   0  0  0  0  0  0  0  0  0  0  0  0
    6.7816   -0.4508    0.1585 C   0  0  0  0  0  0  0  0  0  0  0  0
    7.2385    0.6878    0.7900 C   0  0  0  0  0  0  0  0  0  0  0  0
    6.3854    1.6992    1.2171 C   0  0  0  0  0  0  0  0  0  0  0  0
    5.0352    1.5296    0.9866 C   0  0  0  0  0  0  0  0  0  0  0  0
   -5.9382   -0.3674    0.9762 H   0  0  0  0  0  0  0  0  0  0  0  0
   -5.9561   -2.1793    0.9717 H   0  0  0  0  0  0  0  0  0  0  0  0
   -8.0253   -2.1167    0.0345 H   0  0  0  0  0  0  0  0  0  0  0  0
   -7.3311   -1.2892   -1.3536 H   0  0  0  0  0  0  0  0  0  0  0  0
   -7.9774   -0.2892    0.0143 H   0  0  0  0  0  0  0  0  0  0  0  0
   -2.4703    2.3025    0.9773 H   0  0  0  0  0  0  0  0  0  0  0  0
   -2.2879    2.5046   -0.7816 H   0  0  0  0  0  0  0  0  0  0  0  0
   -4.2867    3.8465    1.0158 H   0  0  0  0  0  0  0  0  0  0  0  0
   -4.7658    3.3230   -0.6889 H   0  0  0  0  0  0  0  0  0  0  0  0
   -3.3998    4.4473   -0.4303 H   0  0  0  0  0  0  0  0  0  0  0  0
   -1.1619    0.9436    0.1997 H   0  0  0  0  0  0  0  0  0  0  0  0
   -1.0144   -3.3297   -0.1973 H   0  0  0  0  0  0  0  0  0  0  0  0
    0.6473   -0.2835    1.0214 H   0  0  0  0  0  0  0  0  0  0  0  0
    0.8070   -2.0392    0.7653 H   0  0  0  0  0  0  0  0  0  0  0  0
    0.9119   -1.3561   -1.7521 H   0  0  0  0  0  0  0  0  0  0  0  0
    3.0539   -1.7854   -0.3532 H   0  0  0  0  0  0  0  0  0  0  0  0
    4.0957    0.1574   -2.0458 H   0  0  0  0  0  0  0  0  0  0  0  0
    2.5627   -0.2689   -2.8004 H   0  0  0  0  0  0  0  0  0  0  0  0
    3.6992   -1.5947   -2.5217 H   0  0  0  0  0  0  0  0  0  0  0  0
    2.6255    0.1437    1.1633 H   0  0  0  0  0  0  0  0  0  0  0  0
    2.4580    2.1699    0.4667 H   0  0  0  0  0  0  0  0  0  0  0  0
    5.0450   -1.4465   -0.5369 H   0  0  0  0  0  0  0  0  0  0  0  0
    7.4527   -1.2323   -0.1702 H   0  0  0  0  0  0  0  0  0  0  0  0
    8.2964    0.8308    0.9759 H   0  0  0  0  0  0  0  0  0  0  0  0
    6.8009    2.5637    1.7039 H   0  0  0  0  0  0  0  0  0  0  0  0
    4.3841    2.3372    1.3306 H   0  0  0  0  0  0  0  0  0  0  0  0
  1  2  1  0
  2  3  1  0
  3  4  1  0
  1  5  2  0
  5  6  1  0
  6  7  1  0
  7  8  1  0
  5  9  1  0
  9 10  2  0
 10 11  1  0
 11 12  2  0
 12 13  1  0
 10 14  1  0
 14 15  1  0
 15 16  1  0
 16 17  1  0
 16 18  1  0
 18 19  1  0
 18 20  1  0
 20 21  2  0
 21 22  1  0
 22 23  2  0
 23 24  1  0
 24 25  2  0
 12  1  1  0
 25 20  1  0
  3 26  1  0
  3 27  1  0
  4 28  1  0
  4 29  1  0
  4 30  1  0
  7 31  1  0
  7 32  1  0
  8 33  1  0
  8 34  1  0
  8 35  1  0
  9 36  1  0
 11 37  1  0
 14 38  1  0
 14 39  1  0
 15 40  1  0
 16 41  1  0
 17 42  1  0
 17 43  1  0
 17 44  1  0
 18 45  1  0
 19 46  1  0
 21 47  1  0
 22 48  1  0
 23 49  1  0
 24 50  1  0
 25 51  1  0
M  END
>  <Batch_No>  (180) 
OSSK_617785

>  <EC50_nM>  (180) 
1240

>  <Set>  (180) 
Drug-like

>  <Molecular_Weight>  (180) 
363.87834

>  <ALogP>  (180) 
4.147

$$$$
MMV007374
     RDKit          3D

 37 39  0  0  0  0  0  0  0  0999 V2000
    5.5579   -0.8538   -0.9015 C   0  0  0  0  0  0  0  0  0  0  0  0
    5.1950    0.0203    0.2952 C   0  0  0  0  0  0  0  0  0  0  0  0
    3.7092    0.1939    0.2862 C   0  0  0  0  0  0  0  0  0  0  0  0
    3.2099    1.2550   -0.4386 C   0  0  0  0  0  0  0  0  0  0  0  0
    1.8506    1.4356   -0.4666 C   0  0  0  0  0  0  0  0  0  0  0  0
    0.9408    0.6147    0.1905 C   0  0  0  0  0  0  0  0  0  0  0  0
   -0.4138    0.9411    0.0815 N   0  0  0  0  0  0  0  0  0  0  0  0
   -1.5170    0.0849   -0.0303 C   0  0  0  0  0  0  0  0  0  0  0  0
   -1.4783   -1.2816   -0.1646 C   0  0  0  0  0  0  0  0  0  0  0  0
   -2.5925   -2.0834   -0.2632 C   0  0  0  0  0  0  0  0  0  0  0  0
   -2.4000   -3.5279   -0.4016 C   0  0  0  0  0  0  0  0  0  0  0  0
   -3.8120   -1.4972   -0.2264 N   0  0  0  0  0  0  0  0  0  0  0  0
   -3.8803   -0.1401   -0.0934 C   0  0  0  0  0  0  0  0  0  0  0  0
   -4.9688    0.6485   -0.0420 N   0  0  0  0  0  0  0  0  0  0  0  0
   -4.5521    1.9356    0.0884 C   0  0  0  0  0  0  0  0  0  0  0  0
   -5.4731    3.1029    0.1778 C   0  0  0  0  0  0  0  0  0  0  0  0
   -3.2257    1.8700    0.1095 N   0  0  0  0  0  0  0  0  0  0  0  0
   -2.7771    0.6236    0.0013 N   0  0  0  0  0  0  0  0  0  0  0  0
    1.4734   -0.4312    0.9041 C   0  0  0  0  0  0  0  0  0  0  0  0
    2.8552   -0.6430    0.9530 C   0  0  0  0  0  0  0  0  0  0  0  0
    5.1696   -0.3794   -1.8399 H   0  0  0  0  0  0  0  0  0  0  0  0
    5.0759   -1.8145   -0.7484 H   0  0  0  0  0  0  0  0  0  0  0  0
    6.6398   -0.9820   -0.9493 H   0  0  0  0  0  0  0  0  0  0  0  0
    5.6701    1.0140    0.2142 H   0  0  0  0  0  0  0  0  0  0  0  0
    5.5670   -0.4732    1.1931 H   0  0  0  0  0  0  0  0  0  0  0  0
    3.8487    1.9409   -0.9781 H   0  0  0  0  0  0  0  0  0  0  0  0
    1.4676    2.2783   -1.0425 H   0  0  0  0  0  0  0  0  0  0  0  0
   -0.6353    1.9908    0.0831 H   0  0  0  0  0  0  0  0  0  0  0  0
   -0.5227   -1.7635   -0.2138 H   0  0  0  0  0  0  0  0  0  0  0  0
   -1.8021   -3.9722    0.4071 H   0  0  0  0  0  0  0  0  0  0  0  0
   -1.9089   -3.8062   -1.3592 H   0  0  0  0  0  0  0  0  0  0  0  0
   -3.4112   -4.0127   -0.3939 H   0  0  0  0  0  0  0  0  0  0  0  0
   -6.5296    2.7961    0.1728 H   0  0  0  0  0  0  0  0  0  0  0  0
   -5.2249    3.7650   -0.6995 H   0  0  0  0  0  0  0  0  0  0  0  0
   -5.2736    3.7322    1.0799 H   0  0  0  0  0  0  0  0  0  0  0  0
    0.8761   -1.1166    1.4642 H   0  0  0  0  0  0  0  0  0  0  0  0
    3.2920   -1.4648    1.5108 H   0  0  0  0  0  0  0  0  0  0  0  0
  1  2  1  0
  2  3  1  0
  3  4  2  0
  4  5  1  0
  5  6  2  0
  6  7  1  0
  7  8  1  0
  8  9  2  0
  9 10  1  0
 10 11  1  0
 10 12  2  0
 12 13  1  0
 13 14  2  0
 14 15  1  0
 15 16  1  0
 15 17  2  0
 17 18  1  0
  6 19  1  0
 19 20  2  0
 20  3  1  0
 18  8  1  0
 18 13  1  0
  1 21  1  0
  1 22  1  0
  1 23  1  0
  2 24  1  0
  2 25  1  0
  4 26  1  0
  5 27  1  0
  7 28  1  0
  9 29  1  0
 11 30  1  0
 11 31  1  0
 11 32  1  0
 16 33  1  0
 16 34  1  0
 16 35  1  0
 19 36  1  0
 20 37  1  0
M  END
>  <Batch_No>  (181) 
C301-0933

>  <EC50_nM>  (181) 
4000

>  <Set>  (181) 
Drug-like

>  <Molecular_Weight>  (181) 
267.32898

>  <ALogP>  (181) 
3.51

$$$$
MMV396719
     RDKit          3D

 45 49  0  0  0  0  0  0  0  0999 V2000
   -0.6554    0.0123   -1.0810 N   0  0  0  0  0  0  0  0  0  0  0  0
   -0.5847   -1.1615   -1.7548 C   0  0  0  0  0  0  0  0  0  0  0  0
   -1.8582   -1.6451   -1.9708 C   0  0  0  0  0  0  0  0  0  0  0  0
   -2.1236   -2.8256   -2.6315 C   0  0  0  0  0  0  0  0  0  0  0  0
   -1.0593   -3.5784   -3.1107 C   0  0  0  0  0  0  0  0  0  0  0  0
    0.2301   -3.1327   -2.9170 C   0  0  0  0  0  0  0  0  0  0  0  0
    0.4525   -1.9403   -2.2474 C   0  0  0  0  0  0  0  0  0  0  0  0
   -2.7062   -0.7659   -1.4278 N   0  0  0  0  0  0  0  0  0  0  0  0
   -1.9707    0.2263   -0.8956 C   0  0  0  0  0  0  0  0  0  0  0  0
   -2.4497    1.4065   -0.1839 C   0  0  0  0  0  0  0  0  0  0  0  0
   -1.5158    2.2952    0.2944 C   0  0  0  0  0  0  0  0  0  0  0  0
   -1.9634    3.4151    0.9610 C   0  0  0  0  0  0  0  0  0  0  0  0
   -3.3256    3.6495    1.1508 C   0  0  0  0  0  0  0  0  0  0  0  0
   -4.2665    2.7533    0.6686 C   0  0  0  0  0  0  0  0  0  0  0  0
   -3.7994    1.6279   -0.0021 C   0  0  0  0  0  0  0  0  0  0  0  0
   -0.1455    2.0243    0.0919 N   0  0  0  0  0  0  0  0  0  0  0  0
    0.3768    0.8906   -0.6381 C   0  0  0  0  0  0  0  0  0  0  0  0
    1.1358    1.5113   -1.8230 C   0  0  0  0  0  0  0  0  0  0  0  0
    1.4011    0.2693    0.2314 C   0  0  0  0  0  0  0  0  0  0  0  0
    2.7077    0.0542   -0.1510 C   0  0  0  0  0  0  0  0  0  0  0  0
    3.6246   -0.5305    0.7030 C   0  0  0  0  0  0  0  0  0  0  0  0
    3.2732   -0.9313    1.9926 C   0  0  0  0  0  0  0  0  0  0  0  0
    1.9614   -0.7089    2.3597 C   0  0  0  0  0  0  0  0  0  0  0  0
    1.5659   -1.0986    3.6518 O   0  0  0  0  0  0  0  0  0  0  0  0
    2.5662   -1.6926    4.4699 C   0  0  0  0  0  0  0  0  0  0  0  0
    1.0356   -0.1230    1.5093 C   0  0  0  0  0  0  0  0  0  0  0  0
   -3.1425   -3.1549   -2.7718 H   0  0  0  0  0  0  0  0  0  0  0  0
   -1.2815   -4.5008   -3.6263 H   0  0  0  0  0  0  0  0  0  0  0  0
    1.0746   -3.7196   -3.2914 H   0  0  0  0  0  0  0  0  0  0  0  0
    1.4834   -1.6502   -2.1286 H   0  0  0  0  0  0  0  0  0  0  0  0
   -1.2268    4.1018    1.3299 H   0  0  0  0  0  0  0  0  0  0  0  0
   -3.6671    4.5438    1.6824 H   0  0  0  0  0  0  0  0  0  0  0  0
   -5.3264    2.8919    0.7911 H   0  0  0  0  0  0  0  0  0  0  0  0
   -4.5492    0.9397   -0.3713 H   0  0  0  0  0  0  0  0  0  0  0  0
    0.5497    2.6883    0.4969 H   0  0  0  0  0  0  0  0  0  0  0  0
    1.9977    2.0861   -1.4378 H   0  0  0  0  0  0  0  0  0  0  0  0
    0.4372    2.1870   -2.3841 H   0  0  0  0  0  0  0  0  0  0  0  0
    1.5131    0.7045   -2.4626 H   0  0  0  0  0  0  0  0  0  0  0  0
    3.0160    0.3479   -1.1335 H   0  0  0  0  0  0  0  0  0  0  0  0
    4.6389   -0.6785    0.3573 H   0  0  0  0  0  0  0  0  0  0  0  0
    4.0112   -1.3767    2.6145 H   0  0  0  0  0  0  0  0  0  0  0  0
    2.9098   -2.6740    4.1091 H   0  0  0  0  0  0  0  0  0  0  0  0
    2.2286   -1.8046    5.5148 H   0  0  0  0  0  0  0  0  0  0  0  0
    3.4114   -0.9498    4.5218 H   0  0  0  0  0  0  0  0  0  0  0  0
    0.0151    0.0167    1.8810 H   0  0  0  0  0  0  0  0  0  0  0  0
  1  2  1  0
  2  3  1  0
  3  4  2  0
  4  5  1  0
  5  6  2  0
  6  7  1  0
  3  8  1  0
  1  9  1  0
  9 10  1  0
 10 11  2  0
 11 12  1  0
 12 13  2  0
 13 14  1  0
 14 15  2  0
 11 16  1  0
 16 17  1  0
 17 18  1  0
 17 19  1  0
 19 20  2  0
 20 21  1  0
 21 22  2  0
 22 23  1  0
 23 24  1  0
 24 25  1  0
 23 26  2  0
 17  1  1  0
  7  2  2  0
  9  8  2  0
 15 10  1  0
 26 19  1  0
  4 27  1  0
  5 28  1  0
  6 29  1  0
  7 30  1  0
 12 31  1  0
 13 32  1  0
 14 33  1  0
 15 34  1  0
 16 35  1  0
 18 36  1  0
 18 37  1  0
 18 38  1  0
 20 39  1  0
 21 40  1  0
 22 41  1  0
 25 42  1  0
 25 43  1  0
 25 44  1  0
 26 45  1  0
M  END
>  <Batch_No>  (182) 
6893-0070

>  <EC50_nM>  (182) 
1150

>  <Set>  (182) 
Drug-like

>  <Molecular_Weight>  (182) 
341.40575

>  <ALogP>  (182) 
4.809

$$$$
MMV396744
     RDKit          3D

 54 57  0  0  0  0  0  0  0  0999 V2000
   -1.1696    0.4092   -0.2388 N   0  0  0  0  0  0  0  0  0  0  0  0
   -2.5430    0.8812   -0.4031 C   0  0  0  0  0  0  0  0  0  0  0  0
   -3.2219    1.0979    0.9225 C   0  0  0  0  0  0  0  0  0  0  0  0
   -4.6042    1.5786    0.6519 C   0  0  0  0  0  0  0  0  0  0  0  0
   -5.7173    0.7690    0.7487 C   0  0  0  0  0  0  0  0  0  0  0  0
   -6.9757    1.2857    0.4775 C   0  0  0  0  0  0  0  0  0  0  0  0
   -7.0771    2.6089    0.1148 C   0  0  0  0  0  0  0  0  0  0  0  0
   -5.9909    3.4493    0.0069 C   0  0  0  0  0  0  0  0  0  0  0  0
   -4.7415    2.8992    0.2861 C   0  0  0  0  0  0  0  0  0  0  0  0
   -3.6830    3.7312    0.1779 F   0  0  0  0  0  0  0  0  0  0  0  0
   -0.8254   -0.8928   -0.1512 C   0  0  0  0  0  0  0  0  0  0  0  0
    0.5423   -0.9396   -0.0127 C   0  0  0  0  0  0  0  0  0  0  0  0
    1.1151   -2.1523    0.0993 N   0  0  0  0  0  0  0  0  0  0  0  0
    0.4455   -3.3102    0.0851 C   0  0  0  0  0  0  0  0  0  0  0  0
   -0.9209   -3.2508   -0.0541 C   0  0  0  0  0  0  0  0  0  0  0  0
   -1.6241   -4.4463   -0.0676 C   0  0  0  0  0  0  0  0  0  0  0  0
   -0.9472   -5.6300    0.0565 C   0  0  0  0  0  0  0  0  0  0  0  0
    0.4300   -5.6887    0.1971 C   0  0  0  0  0  0  0  0  0  0  0  0
    1.1344   -4.5004    0.2108 C   0  0  0  0  0  0  0  0  0  0  0  0
   -1.5307   -2.0616   -0.1687 N   0  0  0  0  0  0  0  0  0  0  0  0
    1.0477    0.3427   -0.0150 C   0  0  0  0  0  0  0  0  0  0  0  0
    2.4249    0.7831    0.1036 C   0  0  0  0  0  0  0  0  0  0  0  0
    2.6427    2.0349    0.1147 O   0  0  0  0  0  0  0  0  0  0  0  0
    3.5142   -0.1188    0.2036 N   0  0  0  0  0  0  0  0  0  0  0  0
    4.8553    0.3602    0.3163 C   0  0  0  0  0  0  0  0  0  0  0  0
    5.3430    1.2106   -0.8020 C   0  0  0  0  0  0  0  0  0  0  0  0
    5.3409    0.5673   -2.1495 C   0  0  0  0  0  0  0  0  0  0  0  0
    6.7921    1.5836   -0.4708 C   0  0  0  0  0  0  0  0  0  0  0  0
   -0.0435    1.1708   -0.1574 C   0  0  0  0  0  0  0  0  0  0  0  0
   -0.0311    2.6046   -0.2138 N   0  0  0  0  0  0  0  0  0  0  0  0
   -3.1320    0.2161   -1.0394 H   0  0  0  0  0  0  0  0  0  0  0  0
   -2.4838    1.8559   -0.9281 H   0  0  0  0  0  0  0  0  0  0  0  0
   -2.6829    1.8107    1.5591 H   0  0  0  0  0  0  0  0  0  0  0  0
   -3.3302    0.0784    1.3953 H   0  0  0  0  0  0  0  0  0  0  0  0
   -5.5877   -0.2641    1.0372 H   0  0  0  0  0  0  0  0  0  0  0  0
   -7.8202    0.6156    0.5660 H   0  0  0  0  0  0  0  0  0  0  0  0
   -8.0603    2.9998   -0.0942 H   0  0  0  0  0  0  0  0  0  0  0  0
   -6.0859    4.4820   -0.2759 H   0  0  0  0  0  0  0  0  0  0  0  0
   -2.7139   -4.3807   -0.1799 H   0  0  0  0  0  0  0  0  0  0  0  0
   -1.4698   -6.5617    0.0480 H   0  0  0  0  0  0  0  0  0  0  0  0
    0.9676   -6.6106    0.2945 H   0  0  0  0  0  0  0  0  0  0  0  0
    2.2100   -4.4786    0.3177 H   0  0  0  0  0  0  0  0  0  0  0  0
    3.2701   -1.1523    0.1893 H   0  0  0  0  0  0  0  0  0  0  0  0
    5.5304   -0.5439    0.3426 H   0  0  0  0  0  0  0  0  0  0  0  0
    5.0482    0.8945    1.2662 H   0  0  0  0  0  0  0  0  0  0  0  0
    4.7968    2.1762   -0.7746 H   0  0  0  0  0  0  0  0  0  0  0  0
    4.7607   -0.3528   -2.2345 H   0  0  0  0  0  0  0  0  0  0  0  0
    6.3820    0.3357   -2.5126 H   0  0  0  0  0  0  0  0  0  0  0  0
    4.9929    1.3665   -2.8693 H   0  0  0  0  0  0  0  0  0  0  0  0
    7.0253    1.3990    0.5946 H   0  0  0  0  0  0  0  0  0  0  0  0
    7.0127    2.6188   -0.7960 H   0  0  0  0  0  0  0  0  0  0  0  0
    7.4561    0.9135   -1.0487 H   0  0  0  0  0  0  0  0  0  0  0  0
   -0.1790    3.0045   -1.1832 H   0  0  0  0  0  0  0  0  0  0  0  0
    0.1120    3.2011    0.6308 H   0  0  0  0  0  0  0  0  0  0  0  0
  1  2  1  0
  2  3  1  0
  3  4  1  0
  4  5  2  0
  5  6  1  0
  6  7  2  0
  7  8  1  0
  8  9  2  0
  9 10  1  0
  1 11  1  0
 11 12  1  0
 12 13  2  0
 13 14  1  0
 14 15  2  0
 15 16  1  0
 16 17  2  0
 17 18  1  0
 18 19  2  0
 15 20  1  0
 12 21  1  0
 21 22  1  0
 22 23  2  0
 22 24  1  0
 24 25  1  0
 25 26  1  0
 26 27  1  0
 26 28  1  0
 21 29  2  0
 29 30  1  0
 29  1  1  0
  9  4  1  0
 20 11  2  0
 19 14  1  0
  2 31  1  0
  2 32  1  0
  3 33  1  0
  3 34  1  0
  5 35  1  0
  6 36  1  0
  7 37  1  0
  8 38  1  0
 16 39  1  0
 17 40  1  0
 18 41  1  0
 19 42  1  0
 24 43  1  0
 25 44  1  0
 25 45  1  0
 26 46  1  0
 27 47  1  0
 27 48  1  0
 27 49  1  0
 28 50  1  0
 28 51  1  0
 28 52  1  0
 30 53  1  0
 30 54  1  0
M  END
>  <Batch_No>  (183) 
STK713905

>  <EC50_nM>  (183) 
832

>  <Set>  (183) 
Drug-like

>  <Molecular_Weight>  (183) 
405.46796

>  <ALogP>  (183) 
4.309

$$$$
MMV006706
     RDKit          3D

 52 56  0  0  0  0  0  0  0  0999 V2000
   -2.8071    0.2952    0.0393 N   0  0  0  0  0  0  0  0  0  0  0  0
   -2.9061    1.5969   -0.2188 C   0  0  0  0  0  0  0  0  0  0  0  0
   -4.2507    1.9516   -0.0878 C   0  0  0  0  0  0  0  0  0  0  0  0
   -4.7184    3.2203   -0.2736 C   0  0  0  0  0  0  0  0  0  0  0  0
   -3.7997    4.1932   -0.6091 C   0  0  0  0  0  0  0  0  0  0  0  0
   -2.4596    3.8842   -0.7486 C   0  0  0  0  0  0  0  0  0  0  0  0
   -2.0160    2.5719   -0.5512 C   0  0  0  0  0  0  0  0  0  0  0  0
   -4.8891    0.8291    0.2427 N   0  0  0  0  0  0  0  0  0  0  0  0
   -4.0154   -0.2082    0.3280 C   0  0  0  0  0  0  0  0  0  0  0  0
   -4.2755   -1.5122    0.6553 C   0  0  0  0  0  0  0  0  0  0  0  0
   -5.5784   -2.0226    0.9544 C   0  0  0  0  0  0  0  0  0  0  0  0
   -6.6435   -2.4179    1.1998 N   0  0  0  0  0  0  0  0  0  0  0  0
   -3.1808   -2.3753    0.6871 C   0  0  0  0  0  0  0  0  0  0  0  0
   -3.3342   -3.8044    1.0169 C   0  0  0  0  0  0  0  0  0  0  0  0
   -1.9656   -1.8466    0.3918 C   0  0  0  0  0  0  0  0  0  0  0  0
   -1.7461   -0.5046    0.0617 C   0  0  0  0  0  0  0  0  0  0  0  0
   -0.4157   -0.1624   -0.2319 N   0  0  0  0  0  0  0  0  0  0  0  0
    0.2254   -0.4926   -1.5210 C   0  0  0  0  0  0  0  0  0  0  0  0
    1.7213   -0.4409   -1.3944 C   0  0  0  0  0  0  0  0  0  0  0  0
    0.4988    0.5086    0.7046 C   0  0  0  0  0  0  0  0  0  0  0  0
    1.5224   -0.5835    1.0139 C   0  0  0  0  0  0  0  0  0  0  0  0
    2.2798   -0.8173   -0.1670 N   0  0  0  0  0  0  0  0  0  0  0  0
    3.6610   -0.6834    0.0469 C   0  0  0  0  0  0  0  0  0  0  0  0
    4.5536   -0.9574   -1.1400 C   0  0  0  0  0  0  0  0  0  0  0  0
    5.8836   -0.3970   -0.6196 C   0  0  0  0  0  0  0  0  0  0  0  0
    5.5206    0.6869    0.3453 C   0  0  0  0  0  0  0  0  0  0  0  0
    3.9909    0.7882    0.2839 C   0  0  0  0  0  0  0  0  0  0  0  0
   -5.7588    3.4101   -0.1562 H   0  0  0  0  0  0  0  0  0  0  0  0
   -4.1336    5.2145   -0.7605 H   0  0  0  0  0  0  0  0  0  0  0  0
   -1.8068    4.6897   -1.0122 H   0  0  0  0  0  0  0  0  0  0  0  0
   -0.9784    2.4136   -0.6899 H   0  0  0  0  0  0  0  0  0  0  0  0
   -4.3852   -4.0007    1.3655 H   0  0  0  0  0  0  0  0  0  0  0  0
   -3.2812   -4.3989    0.0580 H   0  0  0  0  0  0  0  0  0  0  0  0
   -2.6326   -4.1841    1.7556 H   0  0  0  0  0  0  0  0  0  0  0  0
   -1.1148   -2.5177    0.4222 H   0  0  0  0  0  0  0  0  0  0  0  0
   -0.1374    0.1744   -2.2900 H   0  0  0  0  0  0  0  0  0  0  0  0
   -0.0364   -1.5869   -1.6765 H   0  0  0  0  0  0  0  0  0  0  0  0
    2.0981   -1.1359   -2.2058 H   0  0  0  0  0  0  0  0  0  0  0  0
    2.0649    0.5666   -1.7816 H   0  0  0  0  0  0  0  0  0  0  0  0
    1.0742    1.3015    0.1484 H   0  0  0  0  0  0  0  0  0  0  0  0
    0.0203    0.8495    1.6210 H   0  0  0  0  0  0  0  0  0  0  0  0
    0.9997   -1.4951    1.3912 H   0  0  0  0  0  0  0  0  0  0  0  0
    2.1711   -0.1437    1.8191 H   0  0  0  0  0  0  0  0  0  0  0  0
    4.0656   -1.3021    0.8764 H   0  0  0  0  0  0  0  0  0  0  0  0
    4.2460   -0.4484   -2.0750 H   0  0  0  0  0  0  0  0  0  0  0  0
    4.7326   -2.0319   -1.3342 H   0  0  0  0  0  0  0  0  0  0  0  0
    6.5318   -0.0154   -1.4299 H   0  0  0  0  0  0  0  0  0  0  0  0
    6.4217   -1.2093   -0.0499 H   0  0  0  0  0  0  0  0  0  0  0  0
    5.7237    0.3576    1.4018 H   0  0  0  0  0  0  0  0  0  0  0  0
    6.0000    1.6401    0.0814 H   0  0  0  0  0  0  0  0  0  0  0  0
    3.5564    1.1987    1.1946 H   0  0  0  0  0  0  0  0  0  0  0  0
    3.7036    1.3540   -0.6476 H   0  0  0  0  0  0  0  0  0  0  0  0
  1  2  1  0
  2  3  1  0
  3  4  2  0
  4  5  1  0
  5  6  2  0
  6  7  1  0
  3  8  1  0
  1  9  1  0
  9 10  1  0
 10 11  1  0
 11 12  3  0
 10 13  2  0
 13 14  1  0
 13 15  1  0
 15 16  2  0
 16 17  1  0
 17 18  1  0
 18 19  1  0
 17 20  1  0
 20 21  1  0
 21 22  1  0
 22 23  1  0
 23 24  1  0
 24 25  1  0
 25 26  1  0
 26 27  1  0
 16  1  1  0
  7  2  2  0
  9  8  2  0
 22 19  1  0
 27 23  1  0
  4 28  1  0
  5 29  1  0
  6 30  1  0
  7 31  1  0
 14 32  1  0
 14 33  1  0
 14 34  1  0
 15 35  1  0
 18 36  1  0
 18 37  1  0
 19 38  1  0
 19 39  1  0
 20 40  1  0
 20 41  1  0
 21 42  1  0
 21 43  1  0
 23 44  1  0
 24 45  1  0
 24 46  1  0
 25 47  1  0
 25 48  1  0
 26 49  1  0
 26 50  1  0
 27 51  1  0
 27 52  1  0
M  END
>  <Batch_No>  (184) 
STK543375

>  <EC50_nM>  (184) 
683

>  <Set>  (184) 
Drug-like

>  <Molecular_Weight>  (184) 
359.46739

>  <ALogP>  (184) 
4.761

$$$$
MMV009108
     RDKit          3D

 53 55  0  0  0  0  0  0  0  0999 V2000
   -6.6640   -0.1068   -2.1704 C   0  0  0  0  0  0  0  0  0  0  0  0
   -5.8395   -0.6186   -1.0303 C   0  0  0  0  0  0  0  0  0  0  0  0
   -6.2422   -0.1417    0.2491 N   0  0  0  0  0  0  0  0  0  0  0  0
   -6.3667   -1.1115    1.2825 C   0  0  0  0  0  0  0  0  0  0  0  0
   -7.6442   -0.9824    2.0774 C   0  0  0  0  0  0  0  0  0  0  0  0
   -5.4652    1.3169    0.7112 S   0  0  0  0  0  0  0  0  0  0  0  0
   -5.6957    2.3005   -0.4263 O   0  0  0  0  0  0  0  0  0  0  0  0
   -6.0282    1.9147    1.9415 O   0  0  0  0  0  0  0  0  0  0  0  0
   -3.7466    1.0033    0.7963 C   0  0  0  0  0  0  0  0  0  0  0  0
   -2.9299    1.1731   -0.3021 C   0  0  0  0  0  0  0  0  0  0  0  0
   -1.5781    0.9180   -0.2012 C   0  0  0  0  0  0  0  0  0  0  0  0
   -0.9884    0.4906    0.9738 C   0  0  0  0  0  0  0  0  0  0  0  0
   -1.8044    0.3223    2.0660 C   0  0  0  0  0  0  0  0  0  0  0  0
   -3.1435    0.5753    1.9656 C   0  0  0  0  0  0  0  0  0  0  0  0
    0.4641    0.2248    1.0575 C   0  0  0  0  0  0  0  0  0  0  0  0
    1.0352   -0.2051    2.2540 C   0  0  0  0  0  0  0  0  0  0  0  0
    2.7386   -0.3695    1.8284 S   0  0  0  0  0  0  0  0  0  0  0  0
    2.5040    0.1552    0.0936 C   0  0  0  0  0  0  0  0  0  0  0  0
    3.5165    0.2577   -0.8716 N   0  0  0  0  0  0  0  0  0  0  0  0
    4.8723   -0.0653   -0.7235 C   0  0  0  0  0  0  0  0  0  0  0  0
    5.4124   -0.8813    0.2357 C   0  0  0  0  0  0  0  0  0  0  0  0
    6.7753   -1.1288    0.3140 C   0  0  0  0  0  0  0  0  0  0  0  0
    7.6494   -0.5567   -0.5813 C   0  0  0  0  0  0  0  0  0  0  0  0
    9.1082   -0.7882   -0.5407 C   0  0  0  0  0  0  0  0  0  0  0  0
    7.1120    0.2633   -1.5468 C   0  0  0  0  0  0  0  0  0  0  0  0
    8.0221    0.9011   -2.5337 C   0  0  0  0  0  0  0  0  0  0  0  0
    5.7692    0.5027   -1.6180 C   0  0  0  0  0  0  0  0  0  0  0  0
    1.2798    0.3662    0.0676 N   0  0  0  0  0  0  0  0  0  0  0  0
   -7.4811    0.5186   -1.7487 H   0  0  0  0  0  0  0  0  0  0  0  0
   -5.9896    0.5507   -2.7911 H   0  0  0  0  0  0  0  0  0  0  0  0
   -7.0120   -0.9085   -2.8206 H   0  0  0  0  0  0  0  0  0  0  0  0
   -5.9419   -1.7316   -1.0161 H   0  0  0  0  0  0  0  0  0  0  0  0
   -4.7377   -0.4544   -1.2046 H   0  0  0  0  0  0  0  0  0  0  0  0
   -5.5242   -0.9874    1.9997 H   0  0  0  0  0  0  0  0  0  0  0  0
   -6.2415   -2.1044    0.8314 H   0  0  0  0  0  0  0  0  0  0  0  0
   -7.6420   -1.6967    2.9255 H   0  0  0  0  0  0  0  0  0  0  0  0
   -8.4572   -1.3410    1.3851 H   0  0  0  0  0  0  0  0  0  0  0  0
   -7.8432    0.0296    2.4187 H   0  0  0  0  0  0  0  0  0  0  0  0
   -3.3609    1.5125   -1.2574 H   0  0  0  0  0  0  0  0  0  0  0  0
   -0.9549    1.0620   -1.0914 H   0  0  0  0  0  0  0  0  0  0  0  0
   -1.4261   -0.0068    3.0165 H   0  0  0  0  0  0  0  0  0  0  0  0
   -3.7814    0.4431    2.8212 H   0  0  0  0  0  0  0  0  0  0  0  0
    0.5619   -0.3930    3.2067 H   0  0  0  0  0  0  0  0  0  0  0  0
    3.2007    0.6223   -1.8231 H   0  0  0  0  0  0  0  0  0  0  0  0
    4.7971   -1.3685    0.9594 H   0  0  0  0  0  0  0  0  0  0  0  0
    7.1860   -1.7694    1.0699 H   0  0  0  0  0  0  0  0  0  0  0  0
    9.3675   -1.5288    0.2404 H   0  0  0  0  0  0  0  0  0  0  0  0
    9.6532    0.1699   -0.3338 H   0  0  0  0  0  0  0  0  0  0  0  0
    9.4198   -1.1906   -1.5230 H   0  0  0  0  0  0  0  0  0  0  0  0
    9.0758    0.6958   -2.3103 H   0  0  0  0  0  0  0  0  0  0  0  0
    7.7053    0.6020   -3.5303 H   0  0  0  0  0  0  0  0  0  0  0  0
    7.8928    2.0125   -2.3884 H   0  0  0  0  0  0  0  0  0  0  0  0
    5.4111    1.1598   -2.4046 H   0  0  0  0  0  0  0  0  0  0  0  0
  1  2  1  0
  2  3  1  0
  3  4  1  0
  4  5  1  0
  3  6  1  0
  6  7  2  0
  6  8  2  0
  6  9  1  0
  9 10  2  0
 10 11  1  0
 11 12  2  0
 12 13  1  0
 13 14  2  0
 12 15  1  0
 15 16  2  0
 16 17  1  0
 17 18  1  0
 18 19  1  0
 19 20  1  0
 20 21  2  0
 21 22  1  0
 22 23  2  0
 23 24  1  0
 23 25  1  0
 25 26  1  0
 25 27  2  0
 18 28  2  0
 14  9  1  0
 28 15  1  0
 27 20  1  0
  1 29  1  0
  1 30  1  0
  1 31  1  0
  2 32  1  0
  2 33  1  0
  4 34  1  0
  4 35  1  0
  5 36  1  0
  5 37  1  0
  5 38  1  0
 10 39  1  0
 11 40  1  0
 13 41  1  0
 14 42  1  0
 16 43  1  0
 19 44  1  0
 21 45  1  0
 22 46  1  0
 24 47  1  0
 24 48  1  0
 24 49  1  0
 26 50  1  0
 26 51  1  0
 26 52  1  0
 27 53  1  0
M  END
>  <Batch_No>  (185) 
STK750794

>  <EC50_nM>  (185) 
641

>  <Set>  (185) 
Drug-like

>  <Molecular_Weight>  (185) 
415.57209

>  <ALogP>  (185) 
4.474

$$$$
MMV020700
     RDKit          3D

 46 47  0  0  0  0  0  0  0  0999 V2000
    8.8666   -0.8986   -0.2958 C   0  0  0  0  0  0  0  0  0  0  0  0
    7.5588   -0.6202   -0.9709 C   0  0  0  0  0  0  0  0  0  0  0  0
    6.9512   -1.4507   -1.6641 O   0  0  0  0  0  0  0  0  0  0  0  0
    6.9928    0.6716   -0.7999 N   0  0  0  0  0  0  0  0  0  0  0  0
    5.7138    0.9340   -1.4642 C   0  0  0  0  0  0  0  0  0  0  0  0
    5.2082    1.3173   -2.4374 N   0  0  0  0  0  0  0  0  0  0  0  0
    3.9291    1.4206   -2.6965 N   0  0  0  0  0  0  0  0  0  0  0  0
    3.1225    1.0872   -1.8464 C   0  0  0  0  0  0  0  0  0  0  0  0
    1.2491    1.0330   -1.7089 S   0  0  0  0  0  0  0  0  0  0  0  0
    0.8566    0.3990   -0.0828 C   0  0  0  0  0  0  0  0  0  0  0  0
   -0.6171    0.3067    0.1374 C   0  0  0  0  0  0  0  0  0  0  0  0
   -1.2881   -0.7337   -0.4704 C   0  0  0  0  0  0  0  0  0  0  0  0
   -0.6198   -1.7517   -1.3201 C   0  0  0  0  0  0  0  0  0  0  0  0
   -2.6602   -0.8490   -0.2881 C   0  0  0  0  0  0  0  0  0  0  0  0
   -3.3788    0.0414    0.4808 C   0  0  0  0  0  0  0  0  0  0  0  0
   -2.6759    1.0708    1.0748 C   0  0  0  0  0  0  0  0  0  0  0  0
   -1.3139    1.2113    0.9123 C   0  0  0  0  0  0  0  0  0  0  0  0
   -0.5816    2.3402    1.5714 C   0  0  0  0  0  0  0  0  0  0  0  0
   -4.8292   -0.0323    0.7074 C   0  0  0  0  0  0  0  0  0  0  0  0
   -5.5448    0.7624   -0.3852 C   0  0  0  0  0  0  0  0  0  0  0  0
   -5.2253    0.5208    2.0602 C   0  0  0  0  0  0  0  0  0  0  0  0
   -5.2594   -1.4839    0.7079 C   0  0  0  0  0  0  0  0  0  0  0  0
    4.1564    0.5158   -0.3960 S   0  0  0  0  0  0  0  0  0  0  0  0
    8.7379   -0.5913    0.7620 H   0  0  0  0  0  0  0  0  0  0  0  0
    9.5981   -0.1690   -0.7369 H   0  0  0  0  0  0  0  0  0  0  0  0
    9.1929   -1.9362   -0.4330 H   0  0  0  0  0  0  0  0  0  0  0  0
    7.4499    1.4139   -0.2316 H   0  0  0  0  0  0  0  0  0  0  0  0
    1.3391   -0.5745    0.1678 H   0  0  0  0  0  0  0  0  0  0  0  0
    1.3165    1.1167    0.6588 H   0  0  0  0  0  0  0  0  0  0  0  0
   -1.0232   -2.7819   -1.1235 H   0  0  0  0  0  0  0  0  0  0  0  0
   -0.8056   -1.4504   -2.3860 H   0  0  0  0  0  0  0  0  0  0  0  0
    0.4606   -1.8233   -1.1819 H   0  0  0  0  0  0  0  0  0  0  0  0
   -3.1830   -1.6646   -0.7653 H   0  0  0  0  0  0  0  0  0  0  0  0
   -3.2141    1.8002    1.6949 H   0  0  0  0  0  0  0  0  0  0  0  0
    0.1015    1.9652    2.3713 H   0  0  0  0  0  0  0  0  0  0  0  0
   -0.0403    2.9631    0.8365 H   0  0  0  0  0  0  0  0  0  0  0  0
   -1.3038    3.0012    2.0756 H   0  0  0  0  0  0  0  0  0  0  0  0
   -6.1512    1.5774    0.0463 H   0  0  0  0  0  0  0  0  0  0  0  0
   -6.1766    0.1301   -1.0104 H   0  0  0  0  0  0  0  0  0  0  0  0
   -4.8084    1.2473   -1.0487 H   0  0  0  0  0  0  0  0  0  0  0  0
   -6.2193    0.0904    2.3093 H   0  0  0  0  0  0  0  0  0  0  0  0
   -5.3052    1.6255    2.0773 H   0  0  0  0  0  0  0  0  0  0  0  0
   -4.4876    0.1773    2.8172 H   0  0  0  0  0  0  0  0  0  0  0  0
   -5.1435   -1.9487   -0.2873 H   0  0  0  0  0  0  0  0  0  0  0  0
   -6.3202   -1.5753    1.0812 H   0  0  0  0  0  0  0  0  0  0  0  0
   -4.6253   -1.9822    1.4808 H   0  0  0  0  0  0  0  0  0  0  0  0
  1  2  1  0
  2  3  2  0
  2  4  1  0
  4  5  1  0
  5  6  2  0
  6  7  1  0
  7  8  2  0
  8  9  1  0
  9 10  1  0
 10 11  1  0
 11 12  2  0
 12 13  1  0
 12 14  1  0
 14 15  2  0
 15 16  1  0
 16 17  2  0
 17 18  1  0
 15 19  1  0
 19 20  1  0
 19 21  1  0
 19 22  1  0
  8 23  1  0
 23  5  1  0
 17 11  1  0
  1 24  1  0
  1 25  1  0
  1 26  1  0
  4 27  1  0
 10 28  1  0
 10 29  1  0
 13 30  1  0
 13 31  1  0
 13 32  1  0
 14 33  1  0
 16 34  1  0
 18 35  1  0
 18 36  1  0
 18 37  1  0
 20 38  1  0
 20 39  1  0
 20 40  1  0
 21 41  1  0
 21 42  1  0
 21 43  1  0
 22 44  1  0
 22 45  1  0
 22 46  1  0
M  END
>  <Batch_No>  (186) 
STK066507

>  <EC50_nM>  (186) 
871

>  <Set>  (186) 
Drug-like

>  <Molecular_Weight>  (186) 
349.51401

>  <ALogP>  (186) 
4.464

$$$$
MMV007906
     RDKit          3D

 38 39  0  0  0  0  0  0  0  0999 V2000
    7.6210    0.2474    0.1889 C   0  0  0  0  0  0  0  0  0  0  0  0
    6.2909    0.9430   -0.1247 C   0  0  0  0  0  0  0  0  0  0  0  0
    5.2249   -0.0841    0.1640 C   0  0  0  0  0  0  0  0  0  0  0  0
    3.8302    0.3998   -0.0813 C   0  0  0  0  0  0  0  0  0  0  0  0
    2.9341   -0.6296    0.2179 O   0  0  0  0  0  0  0  0  0  0  0  0
    1.5546   -0.5144    0.0991 C   0  0  0  0  0  0  0  0  0  0  0  0
    1.0678    0.7140   -0.3477 C   0  0  0  0  0  0  0  0  0  0  0  0
   -0.3154    0.7947   -0.4549 C   0  0  0  0  0  0  0  0  0  0  0  0
   -1.1474   -0.2610   -0.1430 C   0  0  0  0  0  0  0  0  0  0  0  0
   -0.6298   -1.4462    0.2908 C   0  0  0  0  0  0  0  0  0  0  0  0
    0.7493   -1.5702    0.4125 C   0  0  0  0  0  0  0  0  0  0  0  0
   -2.5811   -0.0441   -0.2997 C   0  0  0  0  0  0  0  0  0  0  0  0
   -2.9775    1.0810   -0.7059 O   0  0  0  0  0  0  0  0  0  0  0  0
   -3.5552   -1.0412   -0.0161 N   0  0  0  0  0  0  0  0  0  0  0  0
   -4.9196   -0.6853   -0.2161 C   0  0  0  0  0  0  0  0  0  0  0  0
   -5.8101   -0.1196    0.6853 C   0  0  0  0  0  0  0  0  0  0  0  0
   -7.0210    0.0447    0.0383 C   0  0  0  0  0  0  0  0  0  0  0  0
   -8.2900    0.6143    0.5909 C   0  0  0  0  0  0  0  0  0  0  0  0
   -6.8429   -0.4026   -1.1763 O   0  0  0  0  0  0  0  0  0  0  0  0
   -5.6452   -0.8300   -1.3566 N   0  0  0  0  0  0  0  0  0  0  0  0
    7.6568   -0.6413   -0.4878 H   0  0  0  0  0  0  0  0  0  0  0  0
    7.4962   -0.1295    1.2245 H   0  0  0  0  0  0  0  0  0  0  0  0
    8.4859    0.8976    0.0663 H   0  0  0  0  0  0  0  0  0  0  0  0
    6.2343    1.7820    0.5872 H   0  0  0  0  0  0  0  0  0  0  0  0
    6.3219    1.2224   -1.1832 H   0  0  0  0  0  0  0  0  0  0  0  0
    5.3040   -0.3676    1.2339 H   0  0  0  0  0  0  0  0  0  0  0  0
    5.3980   -0.9583   -0.5125 H   0  0  0  0  0  0  0  0  0  0  0  0
    3.6083    1.2888    0.5450 H   0  0  0  0  0  0  0  0  0  0  0  0
    3.7338    0.6042   -1.1732 H   0  0  0  0  0  0  0  0  0  0  0  0
    1.7246    1.5345   -0.5895 H   0  0  0  0  0  0  0  0  0  0  0  0
   -0.6920    1.7611   -0.8060 H   0  0  0  0  0  0  0  0  0  0  0  0
   -1.2558   -2.2775    0.5380 H   0  0  0  0  0  0  0  0  0  0  0  0
    1.1284   -2.5301    0.7616 H   0  0  0  0  0  0  0  0  0  0  0  0
   -3.2608   -1.9697    0.3173 H   0  0  0  0  0  0  0  0  0  0  0  0
   -5.5959    0.1423    1.7005 H   0  0  0  0  0  0  0  0  0  0  0  0
   -8.0854    1.3333    1.4183 H   0  0  0  0  0  0  0  0  0  0  0  0
   -8.9737   -0.1480    0.9767 H   0  0  0  0  0  0  0  0  0  0  0  0
   -8.7661    1.2450   -0.2150 H   0  0  0  0  0  0  0  0  0  0  0  0
  1  2  1  0
  2  3  1  0
  3  4  1  0
  4  5  1  0
  5  6  1  0
  6  7  2  0
  7  8  1  0
  8  9  2  0
  9 10  1  0
 10 11  2  0
  9 12  1  0
 12 13  2  0
 12 14  1  0
 14 15  1  0
 15 16  1  0
 16 17  2  0
 17 18  1  0
 17 19  1  0
 19 20  1  0
 11  6  1  0
 20 15  2  0
  1 21  1  0
  1 22  1  0
  1 23  1  0
  2 24  1  0
  2 25  1  0
  3 26  1  0
  3 27  1  0
  4 28  1  0
  4 29  1  0
  7 30  1  0
  8 31  1  0
 10 32  1  0
 11 33  1  0
 14 34  1  0
 16 35  1  0
 18 36  1  0
 18 37  1  0
 18 38  1  0
M  END
>  <Batch_No>  (187) 
STK492168

>  <EC50_nM>  (187) 
ND

>  <Set>  (187) 
Drug-like

>  <Molecular_Weight>  (187) 
274.31502

>  <ALogP>  (187) 
3.065

$$$$
MMV008270
     RDKit          3D

 35 38  0  0  0  0  0  0  0  0999 V2000
   -1.4007   -2.5644   -0.0804 O   0  0  0  0  0  0  0  0  0  0  0  0
   -1.2860   -1.1656   -0.1222 C   0  0  0  0  0  0  0  0  0  0  0  0
   -2.4426   -0.4028   -0.1887 C   0  0  0  0  0  0  0  0  0  0  0  0
   -3.8000   -0.9895   -0.2179 C   0  0  0  0  0  0  0  0  0  0  0  0
   -4.8345   -0.1953    0.5147 C   0  0  0  0  0  0  0  0  0  0  0  0
   -4.4619    1.2277    0.7911 C   0  0  0  0  0  0  0  0  0  0  0  0
   -3.5517    1.7801   -0.3001 C   0  0  0  0  0  0  0  0  0  0  0  0
   -2.3033    0.9743   -0.2289 C   0  0  0  0  0  0  0  0  0  0  0  0
   -1.0743    1.5211   -0.2029 N   0  0  0  0  0  0  0  0  0  0  0  0
    0.0184    0.7241   -0.1377 C   0  0  0  0  0  0  0  0  0  0  0  0
    1.3448    1.1023   -0.1027 C   0  0  0  0  0  0  0  0  0  0  0  0
    2.0678   -0.0709   -0.0383 C   0  0  0  0  0  0  0  0  0  0  0  0
    1.1881   -1.0826   -0.0365 N   0  0  0  0  0  0  0  0  0  0  0  0
   -0.0583   -0.6166   -0.0964 N   0  0  0  0  0  0  0  0  0  0  0  0
    3.5211   -0.1803    0.0173 C   0  0  0  0  0  0  0  0  0  0  0  0
    4.1154   -1.4240    0.0794 C   0  0  0  0  0  0  0  0  0  0  0  0
    5.5103   -1.5115    0.1321 C   0  0  0  0  0  0  0  0  0  0  0  0
    6.2705   -0.3367    0.1207 C   0  0  0  0  0  0  0  0  0  0  0  0
    5.6704    0.8982    0.0587 C   0  0  0  0  0  0  0  0  0  0  0  0
    4.2985    0.9593    0.0077 C   0  0  0  0  0  0  0  0  0  0  0  0
   -1.9428   -2.9705    0.6601 H   0  0  0  0  0  0  0  0  0  0  0  0
   -3.7112   -1.9928    0.2681 H   0  0  0  0  0  0  0  0  0  0  0  0
   -4.1530   -1.1525   -1.2685 H   0  0  0  0  0  0  0  0  0  0  0  0
   -5.0733   -0.6864    1.5023 H   0  0  0  0  0  0  0  0  0  0  0  0
   -5.8144   -0.2066   -0.0468 H   0  0  0  0  0  0  0  0  0  0  0  0
   -5.3746    1.8598    0.7527 H   0  0  0  0  0  0  0  0  0  0  0  0
   -3.9146    1.3702    1.7510 H   0  0  0  0  0  0  0  0  0  0  0  0
   -3.3854    2.8495   -0.0993 H   0  0  0  0  0  0  0  0  0  0  0  0
   -4.0498    1.6080   -1.2865 H   0  0  0  0  0  0  0  0  0  0  0  0
    1.7453    2.0890   -0.1208 H   0  0  0  0  0  0  0  0  0  0  0  0
    3.5355   -2.3322    0.0885 H   0  0  0  0  0  0  0  0  0  0  0  0
    5.9855   -2.4604    0.1803 H   0  0  0  0  0  0  0  0  0  0  0  0
    7.3648   -0.3734    0.1611 H   0  0  0  0  0  0  0  0  0  0  0  0
    6.2024    1.8357    0.0469 H   0  0  0  0  0  0  0  0  0  0  0  0
    3.7936    1.9157   -0.0418 H   0  0  0  0  0  0  0  0  0  0  0  0
  1  2  1  0
  2  3  2  0
  3  4  1  0
  4  5  1  0
  5  6  1  0
  6  7  1  0
  7  8  1  0
  8  9  2  0
  9 10  1  0
 10 11  2  0
 11 12  1  0
 12 13  2  0
 13 14  1  0
 12 15  1  0
 15 16  2  0
 16 17  1  0
 17 18  2  0
 18 19  1  0
 19 20  2  0
 14  2  1  0
  8  3  1  0
 14 10  1  0
 20 15  1  0
  1 21  1  0
  4 22  1  0
  4 23  1  0
  5 24  1  0
  5 25  1  0
  6 26  1  0
  6 27  1  0
  7 28  1  0
  7 29  1  0
 11 30  1  0
 16 31  1  0
 17 32  1  0
 18 33  1  0
 19 34  1  0
 20 35  1  0
M  END
>  <Batch_No>  (188) 
STK591252

>  <EC50_nM>  (188) 
ND

>  <Set>  (188) 
Drug-like

>  <Molecular_Weight>  (188) 
265.3098

>  <ALogP>  (188) 
3.867

$$$$
MMV019127
     RDKit          3D

 52 54  0  0  0  0  0  0  0  0999 V2000
   -2.7089   -2.6008    0.9981 C   0  0  0  0  0  0  0  0  0  0  0  0
   -2.6678   -1.8598   -0.2941 C   0  0  0  0  0  0  0  0  0  0  0  0
   -1.9449   -0.6382   -0.3058 N   0  0  0  0  0  0  0  0  0  0  0  0
   -2.4634    0.4427    0.4362 C   0  0  0  0  0  0  0  0  0  0  0  0
   -3.8234    0.8760    0.0105 C   0  0  0  0  0  0  0  0  0  0  0  0
   -4.0371    1.8389   -0.9554 C   0  0  0  0  0  0  0  0  0  0  0  0
   -5.3404    2.1758   -1.2857 C   0  0  0  0  0  0  0  0  0  0  0  0
   -6.4128    1.5436   -0.6440 C   0  0  0  0  0  0  0  0  0  0  0  0
   -6.1908    0.5764    0.3262 C   0  0  0  0  0  0  0  0  0  0  0  0
   -4.8871    0.2377    0.6583 C   0  0  0  0  0  0  0  0  0  0  0  0
   -0.5488   -0.7960   -0.4156 C   0  0  0  0  0  0  0  0  0  0  0  0
    0.1727   -1.5492    0.6270 C   0  0  0  0  0  0  0  0  0  0  0  0
    1.6609   -1.1582    0.5763 C   0  0  0  0  0  0  0  0  0  0  0  0
    2.1117   -0.9576   -0.7580 N   0  0  0  0  0  0  0  0  0  0  0  0
    3.5085   -1.0071   -0.9859 C   0  0  0  0  0  0  0  0  0  0  0  0
    4.3452    0.0451   -0.4340 C   0  0  0  0  0  0  0  0  0  0  0  0
    4.7350    1.0736   -1.3106 C   0  0  0  0  0  0  0  0  0  0  0  0
    5.5090    2.1249   -0.9057 C   0  0  0  0  0  0  0  0  0  0  0  0
    6.0057    3.4963   -2.1564 Br  0  0  0  0  0  0  0  0  0  0  0  0
    5.9520    2.2335    0.3947 C   0  0  0  0  0  0  0  0  0  0  0  0
    5.5860    1.2392    1.2783 C   0  0  0  0  0  0  0  0  0  0  0  0
    4.7935    0.1675    0.8515 C   0  0  0  0  0  0  0  0  0  0  0  0
    4.4833   -0.7747    1.8047 O   0  0  0  0  0  0  0  0  0  0  0  0
    1.4933    0.2141   -1.3642 C   0  0  0  0  0  0  0  0  0  0  0  0
    0.1999    0.5096   -0.6412 C   0  0  0  0  0  0  0  0  0  0  0  0
   -2.0470   -3.4897    0.9679 H   0  0  0  0  0  0  0  0  0  0  0  0
   -2.4040   -2.0118    1.8874 H   0  0  0  0  0  0  0  0  0  0  0  0
   -3.7112   -3.0023    1.2516 H   0  0  0  0  0  0  0  0  0  0  0  0
   -2.1766   -2.5237   -1.0555 H   0  0  0  0  0  0  0  0  0  0  0  0
   -3.7161   -1.7625   -0.6861 H   0  0  0  0  0  0  0  0  0  0  0  0
   -1.7822    1.3088    0.2907 H   0  0  0  0  0  0  0  0  0  0  0  0
   -2.4414    0.2645    1.5521 H   0  0  0  0  0  0  0  0  0  0  0  0
   -3.1943    2.3158   -1.4393 H   0  0  0  0  0  0  0  0  0  0  0  0
   -5.5685    2.9237   -2.0353 H   0  0  0  0  0  0  0  0  0  0  0  0
   -7.4155    1.8132   -0.9086 H   0  0  0  0  0  0  0  0  0  0  0  0
   -7.0289    0.1186    0.7918 H   0  0  0  0  0  0  0  0  0  0  0  0
   -4.7188   -0.5052    1.4034 H   0  0  0  0  0  0  0  0  0  0  0  0
   -0.3683   -1.3585   -1.3828 H   0  0  0  0  0  0  0  0  0  0  0  0
    0.1562   -2.6425    0.5399 H   0  0  0  0  0  0  0  0  0  0  0  0
   -0.1186   -1.3150    1.6697 H   0  0  0  0  0  0  0  0  0  0  0  0
    2.2460   -1.9855    1.0700 H   0  0  0  0  0  0  0  0  0  0  0  0
    1.8712   -0.2467    1.1662 H   0  0  0  0  0  0  0  0  0  0  0  0
    3.8766   -1.9934   -0.5764 H   0  0  0  0  0  0  0  0  0  0  0  0
    3.6580   -1.1414   -2.0982 H   0  0  0  0  0  0  0  0  0  0  0  0
    4.4102    1.0404   -2.3611 H   0  0  0  0  0  0  0  0  0  0  0  0
    6.5602    3.0846    0.6614 H   0  0  0  0  0  0  0  0  0  0  0  0
    5.9264    1.3123    2.2993 H   0  0  0  0  0  0  0  0  0  0  0  0
    5.0791   -0.9857    2.5835 H   0  0  0  0  0  0  0  0  0  0  0  0
    1.3317    0.0528   -2.4367 H   0  0  0  0  0  0  0  0  0  0  0  0
    2.1368    1.1120   -1.2694 H   0  0  0  0  0  0  0  0  0  0  0  0
   -0.4629    1.1322   -1.2734 H   0  0  0  0  0  0  0  0  0  0  0  0
    0.3707    1.0316    0.3167 H   0  0  0  0  0  0  0  0  0  0  0  0
  1  2  1  0
  2  3  1  0
  3  4  1  0
  4  5  1  0
  5  6  2  0
  6  7  1  0
  7  8  2  0
  8  9  1  0
  9 10  2  0
  3 11  1  0
 11 12  1  0
 12 13  1  0
 13 14  1  0
 14 15  1  0
 15 16  1  0
 16 17  2  0
 17 18  1  0
 18 19  1  0
 18 20  2  0
 20 21  1  0
 21 22  2  0
 22 23  1  0
 14 24  1  0
 24 25  1  0
 10  5  1  0
 25 11  1  0
 22 16  1  0
  1 26  1  0
  1 27  1  0
  1 28  1  0
  2 29  1  0
  2 30  1  0
  4 31  1  0
  4 32  1  0
  6 33  1  0
  7 34  1  0
  8 35  1  0
  9 36  1  0
 10 37  1  0
 11 38  1  0
 12 39  1  0
 12 40  1  0
 13 41  1  0
 13 42  1  0
 15 43  1  0
 15 44  1  0
 17 45  1  0
 20 46  1  0
 21 47  1  0
 23 48  1  0
 24 49  1  0
 24 50  1  0
 25 51  1  0
 25 52  1  0
M  END
>  <Batch_No>  (189) 
STK171429

>  <EC50_nM>  (189) 
625

>  <Set>  (189) 
Drug-like

>  <Molecular_Weight>  (189) 
403.35587

>  <ALogP>  (189) 
4.453

$$$$
MMV396794
     RDKit          3D

 49 49  0  0  0  0  0  0  0  0999 V2000
    5.7964    0.3307   -0.1444 C   0  0  0  0  0  0  0  0  0  0  0  0
    6.2405    1.9340    0.4606 Cl  0  0  0  0  0  0  0  0  0  0  0  0
    4.5230    0.1371   -0.7143 C   0  0  0  0  0  0  0  0  0  0  0  0
    4.2730   -1.1398   -1.1543 C   0  0  0  0  0  0  0  0  0  0  0  0
    5.1880   -2.1751   -1.0551 C   0  0  0  0  0  0  0  0  0  0  0  0
    6.4149   -1.9598   -0.4980 C   0  0  0  0  0  0  0  0  0  0  0  0
    7.6010   -3.2338   -0.3511 Cl  0  0  0  0  0  0  0  0  0  0  0  0
    6.7065   -0.6956   -0.0450 C   0  0  0  0  0  0  0  0  0  0  0  0
    3.7098    1.2070   -0.7642 O   0  0  0  0  0  0  0  0  0  0  0  0
    2.4459    1.4676   -1.1988 C   0  0  0  0  0  0  0  0  0  0  0  0
    1.3213    0.7036   -0.4870 C   0  0  0  0  0  0  0  0  0  0  0  0
    1.4624    1.1079    0.8513 O   0  0  0  0  0  0  0  0  0  0  0  0
    0.0430    1.1129   -1.1245 C   0  0  0  0  0  0  0  0  0  0  0  0
   -1.1863    0.6998   -0.6750 N   0  0  0  0  0  0  0  0  0  0  0  0
   -1.8546    0.9984    0.4925 C   0  0  0  0  0  0  0  0  0  0  0  0
   -2.0012    2.4953    0.8050 C   0  0  0  0  0  0  0  0  0  0  0  0
   -1.2981    0.3663    1.7423 C   0  0  0  0  0  0  0  0  0  0  0  0
   -3.3159    0.5860    0.2998 C   0  0  0  0  0  0  0  0  0  0  0  0
   -3.6561   -0.7854    0.0139 C   0  0  0  0  0  0  0  0  0  0  0  0
   -3.0851   -1.4040   -1.2416 C   0  0  0  0  0  0  0  0  0  0  0  0
   -3.5179   -1.8176    1.0847 C   0  0  0  0  0  0  0  0  0  0  0  0
   -5.1688   -0.7464   -0.2912 C   0  0  0  0  0  0  0  0  0  0  0  0
    3.3375   -1.3716   -1.6100 H   0  0  0  0  0  0  0  0  0  0  0  0
    4.9487   -3.1814   -1.4187 H   0  0  0  0  0  0  0  0  0  0  0  0
    7.6875   -0.5110    0.4036 H   0  0  0  0  0  0  0  0  0  0  0  0
    2.3133    1.3923   -2.3053 H   0  0  0  0  0  0  0  0  0  0  0  0
    2.2490    2.5665   -0.9992 H   0  0  0  0  0  0  0  0  0  0  0  0
    1.5213   -0.3566   -0.6216 H   0  0  0  0  0  0  0  0  0  0  0  0
    2.2512    0.5791    1.1834 H   0  0  0  0  0  0  0  0  0  0  0  0
    0.1211    2.2222   -1.3861 H   0  0  0  0  0  0  0  0  0  0  0  0
    0.1317    0.6880   -2.1846 H   0  0  0  0  0  0  0  0  0  0  0  0
   -1.8619    0.7956   -1.5018 H   0  0  0  0  0  0  0  0  0  0  0  0
   -2.0670    3.1274   -0.0736 H   0  0  0  0  0  0  0  0  0  0  0  0
   -1.1623    2.8377    1.4744 H   0  0  0  0  0  0  0  0  0  0  0  0
   -2.9187    2.7045    1.4163 H   0  0  0  0  0  0  0  0  0  0  0  0
   -0.7782    1.1372    2.3407 H   0  0  0  0  0  0  0  0  0  0  0  0
   -0.6010   -0.4641    1.5814 H   0  0  0  0  0  0  0  0  0  0  0  0
   -2.1399    0.0614    2.4413 H   0  0  0  0  0  0  0  0  0  0  0  0
   -3.8674    0.9303    1.1951 H   0  0  0  0  0  0  0  0  0  0  0  0
   -3.6696    1.2112   -0.5474 H   0  0  0  0  0  0  0  0  0  0  0  0
   -2.0233   -1.6623   -1.1858 H   0  0  0  0  0  0  0  0  0  0  0  0
   -3.6034   -2.4093   -1.3059 H   0  0  0  0  0  0  0  0  0  0  0  0
   -3.4096   -0.9002   -2.1740 H   0  0  0  0  0  0  0  0  0  0  0  0
   -2.4803   -2.2416    1.0534 H   0  0  0  0  0  0  0  0  0  0  0  0
   -4.1430   -2.7090    0.7758 H   0  0  0  0  0  0  0  0  0  0  0  0
   -3.8786   -1.5511    2.0738 H   0  0  0  0  0  0  0  0  0  0  0  0
   -5.5052   -1.6636   -0.7861 H   0  0  0  0  0  0  0  0  0  0  0  0
   -5.3837    0.1435   -0.9165 H   0  0  0  0  0  0  0  0  0  0  0  0
   -5.7099   -0.5642    0.6816 H   0  0  0  0  0  0  0  0  0  0  0  0
  1  2  1  0
  1  3  2  0
  3  4  1  0
  4  5  2  0
  5  6  1  0
  6  7  1  0
  6  8  2  0
  3  9  1  0
  9 10  1  0
 10 11  1  0
 11 12  1  0
 11 13  1  0
 13 14  1  0
 14 15  1  0
 15 16  1  0
 15 17  1  0
 15 18  1  0
 18 19  1  0
 19 20  1  0
 19 21  1  0
 19 22  1  0
  8  1  1  0
  4 23  1  0
  5 24  1  0
  8 25  1  0
 10 26  1  0
 10 27  1  0
 11 28  1  0
 12 29  1  0
 13 30  1  0
 13 31  1  0
 14 32  1  0
 16 33  1  0
 16 34  1  0
 16 35  1  0
 17 36  1  0
 17 37  1  0
 17 38  1  0
 18 39  1  0
 18 40  1  0
 20 41  1  0
 20 42  1  0
 20 43  1  0
 21 44  1  0
 21 45  1  0
 21 46  1  0
 22 47  1  0
 22 48  1  0
 22 49  1  0
M  END
>  <Batch_No>  (190) 
OSSK_686934

>  <EC50_nM>  (190) 
1160

>  <Set>  (190) 
Drug-like

>  <Molecular_Weight>  (190) 
348.30777

>  <ALogP>  (190) 
4.603

$$$$
MMV396736
     RDKit          3D

 48 51  0  0  0  0  0  0  0  0999 V2000
   -2.1462    1.1136   -0.1617 N   0  0  0  0  0  0  0  0  0  0  0  0
   -1.1467    2.1186   -0.4315 C   0  0  0  0  0  0  0  0  0  0  0  0
    0.2660    1.6861   -0.2045 C   0  0  0  0  0  0  0  0  0  0  0  0
    0.6875    0.5287   -1.0423 C   0  0  0  0  0  0  0  0  0  0  0  0
    2.0664    0.1718   -1.0091 N   0  0  0  0  0  0  0  0  0  0  0  0
    2.4696   -0.3611    0.2431 C   0  0  0  0  0  0  0  0  0  0  0  0
    3.9286   -0.7936    0.2005 C   0  0  0  0  0  0  0  0  0  0  0  0
    4.8524    0.2920   -0.2449 C   0  0  0  0  0  0  0  0  0  0  0  0
    5.9681   -0.4786   -0.9415 C   0  0  0  0  0  0  0  0  0  0  0  0
    5.5178   -1.8957   -0.7543 C   0  0  0  0  0  0  0  0  0  0  0  0
    4.1289   -1.7766   -0.7737 O   0  0  0  0  0  0  0  0  0  0  0  0
    0.4752    1.5356    1.1524 O   0  0  0  0  0  0  0  0  0  0  0  0
   -2.7075    0.1976   -0.9690 C   0  0  0  0  0  0  0  0  0  0  0  0
   -3.6225   -0.5737   -0.2829 C   0  0  0  0  0  0  0  0  0  0  0  0
   -4.3413   -1.5963   -0.9092 C   0  0  0  0  0  0  0  0  0  0  0  0
   -4.1348   -1.8478   -2.2557 C   0  0  0  0  0  0  0  0  0  0  0  0
   -5.0391   -3.1325   -3.0386 Cl  0  0  0  0  0  0  0  0  0  0  0  0
   -3.2223   -1.0821   -2.9505 C   0  0  0  0  0  0  0  0  0  0  0  0
   -2.5189   -0.0706   -2.3072 C   0  0  0  0  0  0  0  0  0  0  0  0
   -2.7036    0.9372    1.0675 C   0  0  0  0  0  0  0  0  0  0  0  0
   -3.6182   -0.1006    1.0148 C   0  0  0  0  0  0  0  0  0  0  0  0
   -4.3464   -0.5108    2.1190 C   0  0  0  0  0  0  0  0  0  0  0  0
   -4.1330    0.1605    3.3145 C   0  0  0  0  0  0  0  0  0  0  0  0
   -5.0573   -0.3536    4.7345 Cl  0  0  0  0  0  0  0  0  0  0  0  0
   -3.2248    1.2091    3.4165 C   0  0  0  0  0  0  0  0  0  0  0  0
   -2.5054    1.5974    2.2782 C   0  0  0  0  0  0  0  0  0  0  0  0
   -1.2061    2.4381   -1.5051 H   0  0  0  0  0  0  0  0  0  0  0  0
   -1.3516    3.0465    0.1638 H   0  0  0  0  0  0  0  0  0  0  0  0
    0.9159    2.5513   -0.5176 H   0  0  0  0  0  0  0  0  0  0  0  0
    0.0226   -0.3338   -0.7312 H   0  0  0  0  0  0  0  0  0  0  0  0
    0.4122    0.6816   -2.1307 H   0  0  0  0  0  0  0  0  0  0  0  0
    2.3011   -0.4154   -1.8217 H   0  0  0  0  0  0  0  0  0  0  0  0
    2.4648    0.4685    0.9964 H   0  0  0  0  0  0  0  0  0  0  0  0
    1.8930   -1.2403    0.5769 H   0  0  0  0  0  0  0  0  0  0  0  0
    4.2394   -1.1911    1.1631 H   0  0  0  0  0  0  0  0  0  0  0  0
    4.3262    0.9665   -0.9543 H   0  0  0  0  0  0  0  0  0  0  0  0
    5.2357    0.8319    0.6584 H   0  0  0  0  0  0  0  0  0  0  0  0
    6.9197   -0.2831   -0.4132 H   0  0  0  0  0  0  0  0  0  0  0  0
    6.0034   -0.2325   -2.0143 H   0  0  0  0  0  0  0  0  0  0  0  0
    5.8901   -2.5823   -1.5396 H   0  0  0  0  0  0  0  0  0  0  0  0
    5.7819   -2.2266    0.2735 H   0  0  0  0  0  0  0  0  0  0  0  0
    0.1123    0.6503    1.4093 H   0  0  0  0  0  0  0  0  0  0  0  0
   -5.0422   -2.1609   -0.3090 H   0  0  0  0  0  0  0  0  0  0  0  0
   -3.0338   -1.2487   -4.0035 H   0  0  0  0  0  0  0  0  0  0  0  0
   -1.8206    0.5036   -2.8940 H   0  0  0  0  0  0  0  0  0  0  0  0
   -5.0612   -1.3220    2.0755 H   0  0  0  0  0  0  0  0  0  0  0  0
   -3.0869    1.7077    4.3682 H   0  0  0  0  0  0  0  0  0  0  0  0
   -1.8081    2.4162    2.3891 H   0  0  0  0  0  0  0  0  0  0  0  0
  1  2  1  0
  2  3  1  0
  3  4  1  0
  4  5  1  0
  5  6  1  0
  6  7  1  0
  7  8  1  0
  8  9  1  0
  9 10  1  0
 10 11  1  0
  3 12  1  0
  1 13  1  0
 13 14  1  0
 14 15  2  0
 15 16  1  0
 16 17  1  0
 16 18  2  0
 18 19  1  0
  1 20  1  0
 20 21  2  0
 21 22  1  0
 22 23  2  0
 23 24  1  0
 23 25  1  0
 25 26  2  0
 11  7  1  0
 19 13  2  0
 21 14  1  0
 26 20  1  0
  2 27  1  0
  2 28  1  0
  3 29  1  0
  4 30  1  0
  4 31  1  0
  5 32  1  0
  6 33  1  0
  6 34  1  0
  7 35  1  0
  8 36  1  0
  8 37  1  0
  9 38  1  0
  9 39  1  0
 10 40  1  0
 10 41  1  0
 12 42  1  0
 15 43  1  0
 18 44  1  0
 19 45  1  0
 22 46  1  0
 25 47  1  0
 26 48  1  0
M  END
>  <Batch_No>  (191) 
STK927681

>  <EC50_nM>  (191) 
1060

>  <Set>  (191) 
Drug-like

>  <Molecular_Weight>  (191) 
393.30688

>  <ALogP>  (191) 
4.308

$$$$
MMV306025
     RDKit          3D

 40 42  0  0  0  0  0  0  0  0999 V2000
   -2.8890   -0.0227    0.4039 C   0  0  0  0  0  0  0  0  0  0  0  0
   -4.1978    0.0483    0.6237 N   0  0  0  0  0  0  0  0  0  0  0  0
   -5.0382   -0.6004   -0.2285 C   0  0  0  0  0  0  0  0  0  0  0  0
   -4.5857   -1.3072   -1.2804 N   0  0  0  0  0  0  0  0  0  0  0  0
   -5.5673   -1.9670   -2.1356 C   0  0  0  0  0  0  0  0  0  0  0  0
   -3.2711   -1.4280   -1.5717 C   0  0  0  0  0  0  0  0  0  0  0  0
   -2.8352   -2.0780   -2.5408 O   0  0  0  0  0  0  0  0  0  0  0  0
   -6.2683   -0.4915    0.0384 O   0  0  0  0  0  0  0  0  0  0  0  0
   -2.3840   -0.7862   -0.7338 C   0  0  0  0  0  0  0  0  0  0  0  0
   -1.0469   -0.8352   -0.9245 N   0  0  0  0  0  0  0  0  0  0  0  0
   -0.1869   -0.2057   -0.1016 C   0  0  0  0  0  0  0  0  0  0  0  0
   -0.7112    0.4815    0.9286 N   0  0  0  0  0  0  0  0  0  0  0  0
   -2.0045    0.5808    1.1875 N   0  0  0  0  0  0  0  0  0  0  0  0
   -2.4227    1.3614    2.3418 C   0  0  0  0  0  0  0  0  0  0  0  0
   -2.6151    2.7720    1.8321 C   0  0  0  0  0  0  0  0  0  0  0  0
    1.2521   -0.2321   -0.2692 C   0  0  0  0  0  0  0  0  0  0  0  0
    1.8522   -0.9188   -1.3050 C   0  0  0  0  0  0  0  0  0  0  0  0
    3.2446   -0.9133   -1.4228 C   0  0  0  0  0  0  0  0  0  0  0  0
    4.0578   -0.2461   -0.5423 C   0  0  0  0  0  0  0  0  0  0  0  0
    5.5125   -0.2407   -0.6659 C   0  0  0  0  0  0  0  0  0  0  0  0
    6.0748   -0.8613   -1.6036 O   0  0  0  0  0  0  0  0  0  0  0  0
    6.2856    0.4380    0.2344 O   0  0  0  0  0  0  0  0  0  0  0  0
    7.6977    0.5218    0.2268 C   0  0  0  0  0  0  0  0  0  0  0  0
    3.4554    0.4373    0.4889 C   0  0  0  0  0  0  0  0  0  0  0  0
    2.0896    0.4312    0.6034 C   0  0  0  0  0  0  0  0  0  0  0  0
   -5.6549   -1.4803   -3.1327 H   0  0  0  0  0  0  0  0  0  0  0  0
   -6.5618   -1.9380   -1.6838 H   0  0  0  0  0  0  0  0  0  0  0  0
   -5.3221   -3.0313   -2.3168 H   0  0  0  0  0  0  0  0  0  0  0  0
   -1.5824    1.4044    3.0654 H   0  0  0  0  0  0  0  0  0  0  0  0
   -3.2953    0.9507    2.8516 H   0  0  0  0  0  0  0  0  0  0  0  0
   -2.8837    2.8029    0.7526 H   0  0  0  0  0  0  0  0  0  0  0  0
   -3.3728    3.2433    2.4628 H   0  0  0  0  0  0  0  0  0  0  0  0
   -1.6808    3.3728    1.9660 H   0  0  0  0  0  0  0  0  0  0  0  0
    1.2765   -1.4576   -2.0232 H   0  0  0  0  0  0  0  0  0  0  0  0
    3.7397   -1.4474   -2.2308 H   0  0  0  0  0  0  0  0  0  0  0  0
    8.0431    1.5361   -0.1171 H   0  0  0  0  0  0  0  0  0  0  0  0
    8.0255    0.4579    1.3006 H   0  0  0  0  0  0  0  0  0  0  0  0
    8.1196   -0.2905   -0.3884 H   0  0  0  0  0  0  0  0  0  0  0  0
    4.0365    0.9720    1.2008 H   0  0  0  0  0  0  0  0  0  0  0  0
    1.6139    0.9668    1.4119 H   0  0  0  0  0  0  0  0  0  0  0  0
  1  2  2  0
  2  3  1  0
  3  4  1  0
  4  5  1  0
  4  6  1  0
  6  7  2  0
  3  8  2  0
  1  9  1  0
  9 10  2  0
 10 11  1  0
 11 12  2  0
 12 13  1  0
 13 14  1  0
 14 15  1  0
 11 16  1  0
 16 17  2  0
 17 18  1  0
 18 19  2  0
 19 20  1  0
 20 21  2  0
 20 22  1  0
 22 23  1  0
 19 24  1  0
 24 25  2  0
 13  1  1  0
  9  6  1  0
 25 16  1  0
  5 26  1  0
  5 27  1  0
  5 28  1  0
 14 29  1  0
 14 30  1  0
 15 31  1  0
 15 32  1  0
 15 33  1  0
 17 34  1  0
 18 35  1  0
 23 36  1  0
 23 37  1  0
 23 38  1  0
 24 39  1  0
 25 40  1  0
M  END
>  <Batch_No>  (192) 
D052-0149

>  <EC50_nM>  (192) 
693

>  <Set>  (192) 
Drug-like

>  <Molecular_Weight>  (192) 
341.32139

>  <ALogP>  (192) 
1.435

$$$$
MMV056726
     RDKit          3D

 40 41  0  0  0  0  0  0  0  0999 V2000
    1.8901    3.7118   -0.6985 C   0  0  0  0  0  0  0  0  0  0  0  0
    1.1926    2.4936   -0.8610 O   0  0  0  0  0  0  0  0  0  0  0  0
    1.7607    1.2635   -0.4939 C   0  0  0  0  0  0  0  0  0  0  0  0
    3.0474    1.2401    0.0457 C   0  0  0  0  0  0  0  0  0  0  0  0
    3.6333    0.0352    0.4176 C   0  0  0  0  0  0  0  0  0  0  0  0
    5.2709    0.0375    1.1010 S   0  0  0  0  0  0  0  0  0  0  0  0
    5.8151   -1.6363    1.5051 C   0  0  0  0  0  0  0  0  0  0  0  0
    2.8850   -1.1098    0.2262 C   0  0  0  0  0  0  0  0  0  0  0  0
    1.6109   -1.0936   -0.3073 C   0  0  0  0  0  0  0  0  0  0  0  0
    1.0315    0.1045   -0.6758 C   0  0  0  0  0  0  0  0  0  0  0  0
   -0.2984    0.0799   -1.2284 C   0  0  0  0  0  0  0  0  0  0  0  0
   -0.3865   -0.0411   -2.4990 O   0  0  0  0  0  0  0  0  0  0  0  0
   -1.4516    0.1827   -0.4227 N   0  0  0  0  0  0  0  0  0  0  0  0
   -1.4534    0.3209    1.0068 C   0  0  0  0  0  0  0  0  0  0  0  0
   -2.8639    0.0963    1.4934 C   0  0  0  0  0  0  0  0  0  0  0  0
   -3.5501   -1.0831    0.8688 C   0  0  0  0  0  0  0  0  0  0  0  0
   -3.3549   -1.1834   -0.6146 C   0  0  0  0  0  0  0  0  0  0  0  0
   -4.6122   -1.4426   -1.3816 C   0  0  0  0  0  0  0  0  0  0  0  0
   -2.7698    0.1479   -1.0779 C   0  0  0  0  0  0  0  0  0  0  0  0
    1.2394    4.5141   -1.0973 H   0  0  0  0  0  0  0  0  0  0  0  0
    2.1547    3.8359    0.3674 H   0  0  0  0  0  0  0  0  0  0  0  0
    2.7967    3.6473   -1.3350 H   0  0  0  0  0  0  0  0  0  0  0  0
    3.5510    2.1904    0.1555 H   0  0  0  0  0  0  0  0  0  0  0  0
    5.5752   -1.7841    2.5983 H   0  0  0  0  0  0  0  0  0  0  0  0
    6.9139   -1.7275    1.3521 H   0  0  0  0  0  0  0  0  0  0  0  0
    5.3385   -2.4217    0.8852 H   0  0  0  0  0  0  0  0  0  0  0  0
    3.3225   -2.0565    0.5089 H   0  0  0  0  0  0  0  0  0  0  0  0
    1.0757   -2.0133   -0.4336 H   0  0  0  0  0  0  0  0  0  0  0  0
   -0.7828   -0.3514    1.5500 H   0  0  0  0  0  0  0  0  0  0  0  0
   -1.1851    1.3691    1.2658 H   0  0  0  0  0  0  0  0  0  0  0  0
   -2.8073   -0.0622    2.5868 H   0  0  0  0  0  0  0  0  0  0  0  0
   -3.4427    1.0384    1.3310 H   0  0  0  0  0  0  0  0  0  0  0  0
   -4.6497   -0.9224    1.0567 H   0  0  0  0  0  0  0  0  0  0  0  0
   -3.2318   -2.0044    1.4006 H   0  0  0  0  0  0  0  0  0  0  0  0
   -2.5617   -1.9374   -0.7897 H   0  0  0  0  0  0  0  0  0  0  0  0
   -4.2823   -1.8145   -2.3939 H   0  0  0  0  0  0  0  0  0  0  0  0
   -5.1776   -0.5288   -1.5822 H   0  0  0  0  0  0  0  0  0  0  0  0
   -5.1908   -2.2673   -0.9359 H   0  0  0  0  0  0  0  0  0  0  0  0
   -2.6514    0.1896   -2.1749 H   0  0  0  0  0  0  0  0  0  0  0  0
   -3.4013    0.9826   -0.7197 H   0  0  0  0  0  0  0  0  0  0  0  0
  1  2  1  0
  2  3  1  0
  3  4  2  0
  4  5  1  0
  5  6  1  0
  6  7  1  0
  5  8  2  0
  8  9  1  0
  9 10  2  0
 10 11  1  0
 11 12  2  0
 11 13  1  0
 13 14  1  0
 14 15  1  0
 15 16  1  0
 16 17  1  0
 17 18  1  0
 17 19  1  0
 10  3  1  0
 19 13  1  0
  1 20  1  0
  1 21  1  0
  1 22  1  0
  4 23  1  0
  7 24  1  0
  7 25  1  0
  7 26  1  0
  8 27  1  0
  9 28  1  0
 14 29  1  0
 14 30  1  0
 15 31  1  0
 15 32  1  0
 16 33  1  0
 16 34  1  0
 17 35  1  0
 18 36  1  0
 18 37  1  0
 18 38  1  0
 19 39  1  0
 19 40  1  0
M  END
>  <Batch_No>  (193) 
STK024511

>  <EC50_nM>  (193) 
4000

>  <Set>  (193) 
Drug-like

>  <Molecular_Weight>  (193) 
279.39774

>  <ALogP>  (193) 
3.005

$$$$
MMV274073
     RDKit          3D

 37 39  0  0  0  0  0  0  0  0999 V2000
   -0.2231    0.2169   -0.5561 C   0  0  0  0  0  0  0  0  0  0  0  0
   -0.5809    1.0823   -1.5547 C   0  0  0  0  0  0  0  0  0  0  0  0
    0.3172    1.8883   -2.2571 C   0  0  0  0  0  0  0  0  0  0  0  0
   -0.1363    2.8080   -3.3287 C   0  0  0  0  0  0  0  0  0  0  0  0
    1.6197    1.8201   -1.9456 N   0  0  0  0  0  0  0  0  0  0  0  0
    2.0525    0.9800   -0.9629 C   0  0  0  0  0  0  0  0  0  0  0  0
    3.4052    0.9929   -0.7229 C   0  0  0  0  0  0  0  0  0  0  0  0
    3.9361    0.1848    0.2525 C   0  0  0  0  0  0  0  0  0  0  0  0
    3.0669   -0.6145    0.9558 C   0  0  0  0  0  0  0  0  0  0  0  0
    3.5974   -1.4325    1.9423 O   0  0  0  0  0  0  0  0  0  0  0  0
    4.9785   -1.4393    2.2094 C   0  0  0  0  0  0  0  0  0  0  0  0
    1.6889   -0.6206    0.7034 C   0  0  0  0  0  0  0  0  0  0  0  0
    1.1561    0.1857   -0.2713 C   0  0  0  0  0  0  0  0  0  0  0  0
   -1.0906   -0.5585    0.2272 N   0  0  0  0  0  0  0  0  0  0  0  0
   -2.4680   -0.5176    0.4074 C   0  0  0  0  0  0  0  0  0  0  0  0
   -3.3506    0.4360    0.0043 C   0  0  0  0  0  0  0  0  0  0  0  0
   -4.7374    0.3405    0.1831 C   0  0  0  0  0  0  0  0  0  0  0  0
   -5.2718   -0.7628    0.7978 C   0  0  0  0  0  0  0  0  0  0  0  0
   -4.4187   -1.7393    1.2177 C   0  0  0  0  0  0  0  0  0  0  0  0
   -3.0605   -1.6373    1.0371 C   0  0  0  0  0  0  0  0  0  0  0  0
   -2.2916   -2.6939    1.5059 O   0  0  0  0  0  0  0  0  0  0  0  0
   -1.5949    1.1605   -1.8969 H   0  0  0  0  0  0  0  0  0  0  0  0
   -1.0906    2.4259   -3.7455 H   0  0  0  0  0  0  0  0  0  0  0  0
    0.6708    2.8398   -4.1099 H   0  0  0  0  0  0  0  0  0  0  0  0
   -0.2284    3.8230   -2.9125 H   0  0  0  0  0  0  0  0  0  0  0  0
    4.0729    1.6387   -1.2973 H   0  0  0  0  0  0  0  0  0  0  0  0
    4.9991    0.2247    0.4088 H   0  0  0  0  0  0  0  0  0  0  0  0
    5.2477   -1.9811    3.1174 H   0  0  0  0  0  0  0  0  0  0  0  0
    5.5223   -1.7695    1.2908 H   0  0  0  0  0  0  0  0  0  0  0  0
    5.2728   -0.3576    2.3439 H   0  0  0  0  0  0  0  0  0  0  0  0
    1.1207   -1.2793    1.3198 H   0  0  0  0  0  0  0  0  0  0  0  0
   -0.5917   -1.3397    0.7819 H   0  0  0  0  0  0  0  0  0  0  0  0
   -3.0215    1.3399   -0.4369 H   0  0  0  0  0  0  0  0  0  0  0  0
   -5.3963    1.1265   -0.1574 H   0  0  0  0  0  0  0  0  0  0  0  0
   -6.3353   -0.8119    0.9225 H   0  0  0  0  0  0  0  0  0  0  0  0
   -4.8513   -2.6069    1.7031 H   0  0  0  0  0  0  0  0  0  0  0  0
   -1.9853   -3.3522    0.7832 H   0  0  0  0  0  0  0  0  0  0  0  0
  1  2  2  0
  2  3  1  0
  3  4  1  0
  3  5  2  0
  5  6  1  0
  6  7  1  0
  7  8  2  0
  8  9  1  0
  9 10  1  0
 10 11  1  0
  9 12  2  0
  6 13  2  0
  1 14  1  0
 14 15  1  0
 15 16  2  0
 16 17  1  0
 17 18  2  0
 18 19  1  0
 19 20  2  0
 20 21  1  0
 13  1  1  0
 13 12  1  0
 20 15  1  0
  2 22  1  0
  4 23  1  0
  4 24  1  0
  4 25  1  0
  7 26  1  0
  8 27  1  0
 11 28  1  0
 11 29  1  0
 11 30  1  0
 12 31  1  0
 14 32  1  0
 16 33  1  0
 17 34  1  0
 18 35  1  0
 19 36  1  0
 21 37  1  0
M  END
>  <Batch_No>  (194) 
STL040711

>  <EC50_nM>  (194) 
686

>  <Set>  (194) 
Drug-like

>  <Molecular_Weight>  (194) 
280.32113

>  <ALogP>  (194) 
3.59

$$$$
MMV018984
     RDKit          3D

 35 37  0  0  0  0  0  0  0  0999 V2000
    7.5271   -0.3458    0.5506 C   0  0  0  0  0  0  0  0  0  0  0  0
    6.2086    0.2269    0.2654 C   0  0  0  0  0  0  0  0  0  0  0  0
    5.9453    1.5110    0.1290 O   0  0  0  0  0  0  0  0  0  0  0  0
    4.6848    1.7023   -0.1196 N   0  0  0  0  0  0  0  0  0  0  0  0
    4.0739    0.5003   -0.1522 C   0  0  0  0  0  0  0  0  0  0  0  0
    2.6805    0.3639   -0.4045 N   0  0  0  0  0  0  0  0  0  0  0  0
    1.7165    0.3716    0.6402 C   0  0  0  0  0  0  0  0  0  0  0  0
    2.1418    0.5071    1.8327 O   0  0  0  0  0  0  0  0  0  0  0  0
    0.2895    0.2358    0.4265 C   0  0  0  0  0  0  0  0  0  0  0  0
   -0.5282    0.2711    1.5398 C   0  0  0  0  0  0  0  0  0  0  0  0
   -1.8906    0.1445    1.3557 C   0  0  0  0  0  0  0  0  0  0  0  0
   -2.4528   -0.0145    0.1061 C   0  0  0  0  0  0  0  0  0  0  0  0
   -1.6080   -0.0463   -0.9919 C   0  0  0  0  0  0  0  0  0  0  0  0
   -0.2289    0.0802   -0.8243 C   0  0  0  0  0  0  0  0  0  0  0  0
   -3.8780   -0.1482   -0.1285 C   0  0  0  0  0  0  0  0  0  0  0  0
   -4.3768   -0.8940   -1.1748 C   0  0  0  0  0  0  0  0  0  0  0  0
   -5.7461   -0.9945   -1.3639 C   0  0  0  0  0  0  0  0  0  0  0  0
   -6.6179   -0.3387   -0.4923 C   0  0  0  0  0  0  0  0  0  0  0  0
   -6.1232    0.4156    0.5658 C   0  0  0  0  0  0  0  0  0  0  0  0
   -4.7554    0.5054    0.7402 C   0  0  0  0  0  0  0  0  0  0  0  0
    5.0243   -0.4692    0.0913 C   0  0  0  0  0  0  0  0  0  0  0  0
    7.7992   -1.2371   -0.0227 H   0  0  0  0  0  0  0  0  0  0  0  0
    8.3291    0.4083    0.3327 H   0  0  0  0  0  0  0  0  0  0  0  0
    7.6606   -0.5787    1.6402 H   0  0  0  0  0  0  0  0  0  0  0  0
    2.3666    0.2553   -1.3934 H   0  0  0  0  0  0  0  0  0  0  0  0
   -0.1426    0.3944    2.5467 H   0  0  0  0  0  0  0  0  0  0  0  0
   -2.5876    0.1652    2.1972 H   0  0  0  0  0  0  0  0  0  0  0  0
   -2.0183   -0.1697   -1.9816 H   0  0  0  0  0  0  0  0  0  0  0  0
    0.3703    0.0476   -1.7192 H   0  0  0  0  0  0  0  0  0  0  0  0
   -3.7004   -1.4011   -1.8476 H   0  0  0  0  0  0  0  0  0  0  0  0
   -6.1896   -1.5565   -2.1547 H   0  0  0  0  0  0  0  0  0  0  0  0
   -7.7000   -0.4052   -0.6231 H   0  0  0  0  0  0  0  0  0  0  0  0
   -6.7633    0.9342    1.2559 H   0  0  0  0  0  0  0  0  0  0  0  0
   -4.3512    1.0931    1.5652 H   0  0  0  0  0  0  0  0  0  0  0  0
    4.8407   -1.5343    0.1290 H   0  0  0  0  0  0  0  0  0  0  0  0
  1  2  1  0
  2  3  1  0
  3  4  1  0
  4  5  2  0
  5  6  1  0
  6  7  1  0
  7  8  2  0
  7  9  1  0
  9 10  2  0
 10 11  1  0
 11 12  2  0
 12 13  1  0
 13 14  2  0
 12 15  1  0
 15 16  2  0
 16 17  1  0
 17 18  2  0
 18 19  1  0
 19 20  2  0
  5 21  1  0
 21  2  2  0
 14  9  1  0
 20 15  1  0
  1 22  1  0
  1 23  1  0
  1 24  1  0
  6 25  1  0
 10 26  1  0
 11 27  1  0
 13 28  1  0
 14 29  1  0
 16 30  1  0
 17 31  1  0
 18 32  1  0
 19 33  1  0
 20 34  1  0
 21 35  1  0
M  END
>  <Batch_No>  (195) 
STK053610

>  <EC50_nM>  (195) 
693

>  <Set>  (195) 
Drug-like

>  <Molecular_Weight>  (195) 
278.30526

>  <ALogP>  (195) 
3.271

$$$$
MMV000911
     RDKit          3D

 31 32  0  0  0  0  0  0  0  0999 V2000
    5.9318   -0.6194    0.3730 C   0  0  0  0  0  0  0  0  0  0  0  0
    4.5368   -0.2041    0.1066 C   0  0  0  0  0  0  0  0  0  0  0  0
    4.1939    0.9690   -0.5310 C   0  0  0  0  0  0  0  0  0  0  0  0
    2.8866    1.3106   -0.7553 C   0  0  0  0  0  0  0  0  0  0  0  0
    1.8177    0.4890   -0.3505 C   0  0  0  0  0  0  0  0  0  0  0  0
    0.5016    0.9177   -0.6216 N   0  0  0  0  0  0  0  0  0  0  0  0
   -0.6916    0.2598   -0.3082 C   0  0  0  0  0  0  0  0  0  0  0  0
   -0.6614   -0.8240    0.2718 O   0  0  0  0  0  0  0  0  0  0  0  0
   -1.9403    0.8239   -0.6495 N   0  0  0  0  0  0  0  0  0  0  0  0
   -3.2147    0.2890   -0.4045 C   0  0  0  0  0  0  0  0  0  0  0  0
   -4.3408    1.0147   -0.8283 C   0  0  0  0  0  0  0  0  0  0  0  0
   -5.6195    0.5726   -0.6330 C   0  0  0  0  0  0  0  0  0  0  0  0
   -5.8782   -0.6126   -0.0080 C   0  0  0  0  0  0  0  0  0  0  0  0
   -4.8006   -1.3557    0.4236 C   0  0  0  0  0  0  0  0  0  0  0  0
   -5.0699   -2.9005    1.2404 Cl  0  0  0  0  0  0  0  0  0  0  0  0
   -3.4913   -0.8992    0.2216 C   0  0  0  0  0  0  0  0  0  0  0  0
    2.1759   -0.6644    0.2771 C   0  0  0  0  0  0  0  0  0  0  0  0
    3.5118   -1.0212    0.5104 C   0  0  0  0  0  0  0  0  0  0  0  0
    3.8114   -2.1812    1.1397 F   0  0  0  0  0  0  0  0  0  0  0  0
    6.2744   -1.3970   -0.3457 H   0  0  0  0  0  0  0  0  0  0  0  0
    6.0734   -0.9305    1.4300 H   0  0  0  0  0  0  0  0  0  0  0  0
    6.6163    0.2403    0.2005 H   0  0  0  0  0  0  0  0  0  0  0  0
    4.9881    1.6268   -0.8571 H   0  0  0  0  0  0  0  0  0  0  0  0
    2.7085    2.2527   -1.2643 H   0  0  0  0  0  0  0  0  0  0  0  0
    0.4101    1.8516   -1.1234 H   0  0  0  0  0  0  0  0  0  0  0  0
   -1.9056    1.7569   -1.1468 H   0  0  0  0  0  0  0  0  0  0  0  0
   -4.2292    1.9738   -1.3372 H   0  0  0  0  0  0  0  0  0  0  0  0
   -6.4625    1.1568   -0.9721 H   0  0  0  0  0  0  0  0  0  0  0  0
   -6.8610   -1.0016    0.1684 H   0  0  0  0  0  0  0  0  0  0  0  0
   -2.7225   -1.5319    0.5843 H   0  0  0  0  0  0  0  0  0  0  0  0
    1.4511   -1.3620    0.6266 H   0  0  0  0  0  0  0  0  0  0  0  0
  1  2  1  0
  2  3  2  0
  3  4  1  0
  4  5  2  0
  5  6  1  0
  6  7  1  0
  7  8  2  0
  7  9  1  0
  9 10  1  0
 10 11  2  0
 11 12  1  0
 12 13  2  0
 13 14  1  0
 14 15  1  0
 14 16  2  0
  5 17  1  0
 17 18  2  0
 18 19  1  0
 18  2  1  0
 16 10  1  0
  1 20  1  0
  1 21  1  0
  1 22  1  0
  3 23  1  0
  4 24  1  0
  6 25  1  0
  9 26  1  0
 11 27  1  0
 12 28  1  0
 13 29  1  0
 16 30  1  0
 17 31  1  0
M  END
>  <Batch_No>  (196) 
STK902918

>  <EC50_nM>  (196) 
ND

>  <Set>  (196) 
Drug-like

>  <Molecular_Weight>  (196) 
278.70928

>  <ALogP>  (196) 
3.879

$$$$
MMV007430
     RDKit          3D

 44 46  0  0  0  0  0  0  0  0999 V2000
   -7.2087   -3.2342   -1.0469 Br  0  0  0  0  0  0  0  0  0  0  0  0
   -5.9900   -1.8400   -0.5984 C   0  0  0  0  0  0  0  0  0  0  0  0
   -5.0843   -1.3440   -1.5427 C   0  0  0  0  0  0  0  0  0  0  0  0
   -4.2153   -0.3340   -1.1854 C   0  0  0  0  0  0  0  0  0  0  0  0
   -4.1941    0.2236    0.0842 C   0  0  0  0  0  0  0  0  0  0  0  0
   -5.1019   -0.2910    0.9894 C   0  0  0  0  0  0  0  0  0  0  0  0
   -5.9863   -1.2985    0.6741 C   0  0  0  0  0  0  0  0  0  0  0  0
   -3.1028    1.4956    0.5417 S   0  0  0  0  0  0  0  0  0  0  0  0
   -3.7560    2.3801    1.5907 O   0  0  0  0  0  0  0  0  0  0  0  0
   -2.7999    2.4041   -0.6328 O   0  0  0  0  0  0  0  0  0  0  0  0
   -1.6521    0.7852    1.1594 N   0  0  0  0  0  0  0  0  0  0  0  0
   -1.0649    0.0136    0.1219 C   0  0  0  0  0  0  0  0  0  0  0  0
    0.4147   -0.1352    0.1372 C   0  0  0  0  0  0  0  0  0  0  0  0
    1.1295    1.1238    0.5763 C   0  0  0  0  0  0  0  0  0  0  0  0
    0.5816    1.4053    1.9778 C   0  0  0  0  0  0  0  0  0  0  0  0
   -0.8598    1.8276    1.7232 C   0  0  0  0  0  0  0  0  0  0  0  0
    2.5778    0.9411    0.5424 C   0  0  0  0  0  0  0  0  0  0  0  0
    3.2843    1.6813   -0.1959 O   0  0  0  0  0  0  0  0  0  0  0  0
    3.1832   -0.0731    1.3440 N   0  0  0  0  0  0  0  0  0  0  0  0
    4.6408   -0.2470    1.3012 C   0  0  0  0  0  0  0  0  0  0  0  0
    5.0830   -0.5763   -0.0842 C   0  0  0  0  0  0  0  0  0  0  0  0
    5.4166    0.3358   -0.9648 O   0  0  0  0  0  0  0  0  0  0  0  0
    5.7693   -0.1893   -2.1068 C   0  0  0  0  0  0  0  0  0  0  0  0
    5.6571   -1.5668   -1.9623 C   0  0  0  0  0  0  0  0  0  0  0  0
    5.2193   -1.8135   -0.6721 C   0  0  0  0  0  0  0  0  0  0  0  0
   -5.0946   -1.7758   -2.5400 H   0  0  0  0  0  0  0  0  0  0  0  0
   -3.5362    0.0210   -1.9334 H   0  0  0  0  0  0  0  0  0  0  0  0
   -5.1367    0.0966    1.9880 H   0  0  0  0  0  0  0  0  0  0  0  0
   -6.6814   -1.6821    1.3920 H   0  0  0  0  0  0  0  0  0  0  0  0
   -1.4884   -1.0281    0.2194 H   0  0  0  0  0  0  0  0  0  0  0  0
   -1.3958    0.3549   -0.9003 H   0  0  0  0  0  0  0  0  0  0  0  0
    0.8015   -0.9587    0.7814 H   0  0  0  0  0  0  0  0  0  0  0  0
    0.7579   -0.3427   -0.9000 H   0  0  0  0  0  0  0  0  0  0  0  0
    0.8254    2.0035   -0.0271 H   0  0  0  0  0  0  0  0  0  0  0  0
    1.1125    2.1917    2.5065 H   0  0  0  0  0  0  0  0  0  0  0  0
    0.5206    0.4279    2.4918 H   0  0  0  0  0  0  0  0  0  0  0  0
   -1.3262    2.1487    2.6744 H   0  0  0  0  0  0  0  0  0  0  0  0
   -0.8933    2.7372    1.0664 H   0  0  0  0  0  0  0  0  0  0  0  0
    2.5723   -0.6677    1.9428 H   0  0  0  0  0  0  0  0  0  0  0  0
    5.1603    0.6662    1.6596 H   0  0  0  0  0  0  0  0  0  0  0  0
    4.8811   -1.0873    1.9853 H   0  0  0  0  0  0  0  0  0  0  0  0
    6.0951    0.2933   -3.0245 H   0  0  0  0  0  0  0  0  0  0  0  0
    5.8703   -2.3142   -2.7136 H   0  0  0  0  0  0  0  0  0  0  0  0
    5.0143   -2.7592   -0.1856 H   0  0  0  0  0  0  0  0  0  0  0  0
  1  2  1  0
  2  3  2  0
  3  4  1  0
  4  5  2  0
  5  6  1  0
  6  7  2  0
  5  8  1  0
  8  9  2  0
  8 10  2  0
  8 11  1  0
 11 12  1  0
 12 13  1  0
 13 14  1  0
 14 15  1  0
 15 16  1  0
 14 17  1  0
 17 18  2  0
 17 19  1  0
 19 20  1  0
 20 21  1  0
 21 22  1  0
 22 23  1  0
 23 24  2  0
 24 25  1  0
  7  2  1  0
 16 11  1  0
 25 21  2  0
  3 26  1  0
  4 27  1  0
  6 28  1  0
  7 29  1  0
 12 30  1  0
 12 31  1  0
 13 32  1  0
 13 33  1  0
 14 34  1  0
 15 35  1  0
 15 36  1  0
 16 37  1  0
 16 38  1  0
 19 39  1  0
 20 40  1  0
 20 41  1  0
 23 42  1  0
 24 43  1  0
 25 44  1  0
M  END
>  <Batch_No>  (197) 
STK178269

>  <EC50_nM>  (197) 
939

>  <Set>  (197) 
Drug-like

>  <Molecular_Weight>  (197) 
427.31275

>  <ALogP>  (197) 
2.14

$$$$
MMV007977
     RDKit          3D

 30 32  0  0  0  0  0  0  0  0999 V2000
    7.4375   -0.3271   -0.5948 Cl  0  0  0  0  0  0  0  0  0  0  0  0
    5.6951   -0.3044   -0.4830 C   0  0  0  0  0  0  0  0  0  0  0  0
    5.0417    0.9025   -0.2996 C   0  0  0  0  0  0  0  0  0  0  0  0
    3.6552    0.9219   -0.2104 C   0  0  0  0  0  0  0  0  0  0  0  0
    2.8848   -0.2144   -0.2964 C   0  0  0  0  0  0  0  0  0  0  0  0
    1.4308   -0.1941   -0.2029 C   0  0  0  0  0  0  0  0  0  0  0  0
    0.7247    0.9099   -0.0284 C   0  0  0  0  0  0  0  0  0  0  0  0
   -0.7370    0.8809    0.0597 C   0  0  0  0  0  0  0  0  0  0  0  0
   -1.4825    1.9855    0.2367 N   0  0  0  0  0  0  0  0  0  0  0  0
   -2.8045    1.9797    0.3188 C   0  0  0  0  0  0  0  0  0  0  0  0
   -3.4546    3.0244    0.4828 O   0  0  0  0  0  0  0  0  0  0  0  0
   -3.4777    0.7812    0.2195 C   0  0  0  0  0  0  0  0  0  0  0  0
   -4.8545    0.7521    0.3022 C   0  0  0  0  0  0  0  0  0  0  0  0
   -5.5033   -0.4540    0.2005 C   0  0  0  0  0  0  0  0  0  0  0  0
   -4.7556   -1.5996    0.0184 C   0  0  0  0  0  0  0  0  0  0  0  0
   -3.3688   -1.5628   -0.0640 C   0  0  0  0  0  0  0  0  0  0  0  0
   -2.7071   -0.3503    0.0377 C   0  0  0  0  0  0  0  0  0  0  0  0
   -1.3940   -0.2676   -0.0348 O   0  0  0  0  0  0  0  0  0  0  0  0
    3.5492   -1.4085   -0.4790 C   0  0  0  0  0  0  0  0  0  0  0  0
    4.9178   -1.4280   -0.5670 C   0  0  0  0  0  0  0  0  0  0  0  0
    5.6294    1.8040   -0.2299 H   0  0  0  0  0  0  0  0  0  0  0  0
    3.2063    1.8883   -0.0682 H   0  0  0  0  0  0  0  0  0  0  0  0
    0.8869   -1.1256   -0.2788 H   0  0  0  0  0  0  0  0  0  0  0  0
    1.1811    1.8894    0.0586 H   0  0  0  0  0  0  0  0  0  0  0  0
   -5.4119    1.6903    0.4479 H   0  0  0  0  0  0  0  0  0  0  0  0
   -6.5791   -0.4552    0.2677 H   0  0  0  0  0  0  0  0  0  0  0  0
   -5.2961   -2.5405   -0.0588 H   0  0  0  0  0  0  0  0  0  0  0  0
   -2.8217   -2.4614   -0.2044 H   0  0  0  0  0  0  0  0  0  0  0  0
    2.9782   -2.3451   -0.5538 H   0  0  0  0  0  0  0  0  0  0  0  0
    5.4297   -2.3715   -0.7105 H   0  0  0  0  0  0  0  0  0  0  0  0
  1  2  1  0
  2  3  2  0
  3  4  1  0
  4  5  2  0
  5  6  1  0
  6  7  2  3
  7  8  1  0
  8  9  2  0
  9 10  1  0
 10 11  2  0
 10 12  1  0
 12 13  2  0
 13 14  1  0
 14 15  2  0
 15 16  1  0
 16 17  2  0
 17 18  1  0
  5 19  1  0
 19 20  2  0
 20  2  1  0
 18  8  1  0
 17 12  1  0
  3 21  1  0
  4 22  1  0
  6 23  1  0
  7 24  1  0
 13 25  1  0
 14 26  1  0
 15 27  1  0
 16 28  1  0
 19 29  1  0
 20 30  1  0
M  END
>  <Batch_No>  (198) 
STK860217

>  <EC50_nM>  (198) 
995

>  <Set>  (198) 
Drug-like

>  <Molecular_Weight>  (198) 
283.7091

>  <ALogP>  (198) 
4.273

$$$$
MMV020654
     RDKit          3D

 36 37  0  0  0  0  0  0  0  0999 V2000
   -2.4922   -2.5049   -0.7794 C   0  0  0  0  0  0  0  0  0  0  0  0
   -2.1050   -1.0481   -1.0441 C   0  0  0  0  0  0  0  0  0  0  0  0
   -2.1593   -0.3687    0.2949 C   0  0  0  0  0  0  0  0  0  0  0  0
   -3.4945   -0.5200    0.7381 O   0  0  0  0  0  0  0  0  0  0  0  0
   -1.9018    1.0722    0.2520 C   0  0  0  0  0  0  0  0  0  0  0  0
   -2.9584    1.9667    0.0401 C   0  0  0  0  0  0  0  0  0  0  0  0
   -2.7594    3.3306   -0.0049 C   0  0  0  0  0  0  0  0  0  0  0  0
   -1.5076    3.8860    0.1566 C   0  0  0  0  0  0  0  0  0  0  0  0
   -1.2798    5.7652    0.0875 Br  0  0  0  0  0  0  0  0  0  0  0  0
   -0.4547    3.0198    0.3663 C   0  0  0  0  0  0  0  0  0  0  0  0
   -0.6607    1.6499    0.4105 C   0  0  0  0  0  0  0  0  0  0  0  0
    0.4678    0.8358    0.6339 N   0  0  0  0  0  0  0  0  0  0  0  0
    1.3084    0.3306   -0.3962 C   0  0  0  0  0  0  0  0  0  0  0  0
    1.0837    0.5948   -1.6267 O   0  0  0  0  0  0  0  0  0  0  0  0
    2.4692   -0.5118   -0.1328 C   0  0  0  0  0  0  0  0  0  0  0  0
    3.2206   -0.9507   -1.2024 C   0  0  0  0  0  0  0  0  0  0  0  0
    4.3478   -1.7621   -1.0246 C   0  0  0  0  0  0  0  0  0  0  0  0
    4.7351   -2.1444    0.2434 C   0  0  0  0  0  0  0  0  0  0  0  0
    3.9852   -1.7065    1.3125 C   0  0  0  0  0  0  0  0  0  0  0  0
    4.4501   -2.1752    2.9484 Cl  0  0  0  0  0  0  0  0  0  0  0  0
    2.8667   -0.9000    1.1189 C   0  0  0  0  0  0  0  0  0  0  0  0
   -1.7426   -2.8932   -0.0376 H   0  0  0  0  0  0  0  0  0  0  0  0
   -3.4693   -2.5133   -0.2280 H   0  0  0  0  0  0  0  0  0  0  0  0
   -2.5187   -3.0512   -1.7232 H   0  0  0  0  0  0  0  0  0  0  0  0
   -2.7602   -0.5861   -1.7939 H   0  0  0  0  0  0  0  0  0  0  0  0
   -1.0652   -1.0861   -1.4151 H   0  0  0  0  0  0  0  0  0  0  0  0
   -1.5383   -0.9209    1.0096 H   0  0  0  0  0  0  0  0  0  0  0  0
   -3.5970   -0.2487    1.6704 H   0  0  0  0  0  0  0  0  0  0  0  0
   -3.9589    1.5763   -0.0920 H   0  0  0  0  0  0  0  0  0  0  0  0
   -3.6053    4.0040   -0.1722 H   0  0  0  0  0  0  0  0  0  0  0  0
    0.5547    3.4270    0.4988 H   0  0  0  0  0  0  0  0  0  0  0  0
    0.6900    0.5951    1.6293 H   0  0  0  0  0  0  0  0  0  0  0  0
    2.9952   -0.7034   -2.2307 H   0  0  0  0  0  0  0  0  0  0  0  0
    4.9348   -2.1037   -1.8748 H   0  0  0  0  0  0  0  0  0  0  0  0
    5.6065   -2.7725    0.3908 H   0  0  0  0  0  0  0  0  0  0  0  0
    2.3132   -0.5826    1.9763 H   0  0  0  0  0  0  0  0  0  0  0  0
  1  2  1  0
  2  3  1  0
  3  4  1  0
  3  5  1  0
  5  6  2  0
  6  7  1  0
  7  8  2  0
  8  9  1  0
  8 10  1  0
 10 11  2  0
 11 12  1  0
 12 13  1  0
 13 14  2  0
 13 15  1  0
 15 16  2  0
 16 17  1  0
 17 18  2  0
 18 19  1  0
 19 20  1  0
 19 21  2  0
 11  5  1  0
 21 15  1  0
  1 22  1  0
  1 23  1  0
  1 24  1  0
  2 25  1  0
  2 26  1  0
  3 27  1  0
  4 28  1  0
  6 29  1  0
  7 30  1  0
 10 31  1  0
 12 32  1  0
 16 33  1  0
 17 34  1  0
 18 35  1  0
 21 36  1  0
M  END
>  <Batch_No>  (199) 
STK227898

>  <EC50_nM>  (199) 
640.5

>  <Set>  (199) 
Drug-like

>  <Molecular_Weight>  (199) 
368.65279

>  <ALogP>  (199) 
4.324

$$$$
MMV665883
     RDKit          3D

 50 54  0  0  0  0  0  0  0  0999 V2000
    6.1208   -1.0246   -0.4616 O   0  0  0  0  0  0  0  0  0  0  0  0
    6.2529    0.0087    0.2544 C   0  0  0  0  0  0  0  0  0  0  0  0
    5.2861    1.0618    0.1870 N   0  0  0  0  0  0  0  0  0  0  0  0
    4.2016    0.8522   -0.7237 C   0  0  0  0  0  0  0  0  0  0  0  0
    4.4226    1.3201   -2.0225 C   0  0  0  0  0  0  0  0  0  0  0  0
    3.4260    1.1568   -2.9618 C   0  0  0  0  0  0  0  0  0  0  0  0
    2.2480    0.5348   -2.5745 C   0  0  0  0  0  0  0  0  0  0  0  0
    2.0200    0.0722   -1.3047 C   0  0  0  0  0  0  0  0  0  0  0  0
    3.0264    0.2375   -0.3576 C   0  0  0  0  0  0  0  0  0  0  0  0
    0.7956   -0.5792   -0.8849 C   0  0  0  0  0  0  0  0  0  0  0  0
    0.6270   -0.9946    0.3101 O   0  0  0  0  0  0  0  0  0  0  0  0
   -0.2891   -0.7959   -1.7711 N   0  0  0  0  0  0  0  0  0  0  0  0
   -1.5044   -1.4355   -1.3786 C   0  0  0  0  0  0  0  0  0  0  0  0
   -1.5956   -2.8094   -1.5071 C   0  0  0  0  0  0  0  0  0  0  0  0
   -2.7663   -3.4561   -1.1327 C   0  0  0  0  0  0  0  0  0  0  0  0
   -3.8429   -2.7228   -0.6301 C   0  0  0  0  0  0  0  0  0  0  0  0
   -3.7649   -1.3424   -0.4957 C   0  0  0  0  0  0  0  0  0  0  0  0
   -2.5766   -0.7602   -0.8846 C   0  0  0  0  0  0  0  0  0  0  0  0
   -4.8687   -0.5432    0.0252 C   0  0  0  0  0  0  0  0  0  0  0  0
   -6.0455   -1.0542    0.4181 N   0  0  0  0  0  0  0  0  0  0  0  0
   -6.8667   -0.0860    0.8502 C   0  0  0  0  0  0  0  0  0  0  0  0
   -8.1675   -0.0953    1.3507 C   0  0  0  0  0  0  0  0  0  0  0  0
   -8.7703    1.0832    1.7237 C   0  0  0  0  0  0  0  0  0  0  0  0
   -8.0682    2.2836    1.5959 C   0  0  0  0  0  0  0  0  0  0  0  0
   -6.7738    2.2703    1.0952 C   0  0  0  0  0  0  0  0  0  0  0  0
   -6.1513    1.0872    0.7141 C   0  0  0  0  0  0  0  0  0  0  0  0
   -4.9246    0.7988    0.2067 N   0  0  0  0  0  0  0  0  0  0  0  0
    7.4130    0.0802    1.1369 C   0  0  0  0  0  0  0  0  0  0  0  0
    8.3059   -0.8613    1.2179 O   0  0  0  0  0  0  0  0  0  0  0  0
    9.2290   -0.5282    2.0860 C   0  0  0  0  0  0  0  0  0  0  0  0
    8.9268    0.7184    2.6155 C   0  0  0  0  0  0  0  0  0  0  0  0
    7.7562    1.0986    1.9967 C   0  0  0  0  0  0  0  0  0  0  0  0
    5.3889    1.9112    0.7714 H   0  0  0  0  0  0  0  0  0  0  0  0
    5.3375    1.8018   -2.3186 H   0  0  0  0  0  0  0  0  0  0  0  0
    3.5333    1.4992   -3.9947 H   0  0  0  0  0  0  0  0  0  0  0  0
    1.4947    0.4229   -3.3249 H   0  0  0  0  0  0  0  0  0  0  0  0
    2.8971   -0.1111    0.6636 H   0  0  0  0  0  0  0  0  0  0  0  0
   -0.2441   -0.4896   -2.7723 H   0  0  0  0  0  0  0  0  0  0  0  0
   -0.7624   -3.3848   -1.8970 H   0  0  0  0  0  0  0  0  0  0  0  0
   -2.8620   -4.5333   -1.2242 H   0  0  0  0  0  0  0  0  0  0  0  0
   -4.7686   -3.2005   -0.3300 H   0  0  0  0  0  0  0  0  0  0  0  0
   -2.4987    0.3202   -0.7859 H   0  0  0  0  0  0  0  0  0  0  0  0
   -8.7274   -1.0178    1.4567 H   0  0  0  0  0  0  0  0  0  0  0  0
   -9.7788    1.1188    2.1168 H   0  0  0  0  0  0  0  0  0  0  0  0
   -8.5449    3.1890    1.8877 H   0  0  0  0  0  0  0  0  0  0  0  0
   -6.2190    3.2085    0.9930 H   0  0  0  0  0  0  0  0  0  0  0  0
   -4.1596    1.4765   -0.0075 H   0  0  0  0  0  0  0  0  0  0  0  0
   10.1092   -1.0818    2.3906 H   0  0  0  0  0  0  0  0  0  0  0  0
    9.5103    1.2692    3.3685 H   0  0  0  0  0  0  0  0  0  0  0  0
    7.2129    2.0264    2.1604 H   0  0  0  0  0  0  0  0  0  0  0  0
  1  2  2  0
  2  3  1  0
  3  4  1  0
  4  5  2  0
  5  6  1  0
  6  7  2  0
  7  8  1  0
  8  9  2  0
  8 10  1  0
 10 11  2  0
 10 12  1  0
 12 13  1  0
 13 14  2  0
 14 15  1  0
 15 16  2  0
 16 17  1  0
 17 18  2  0
 17 19  1  0
 19 20  2  0
 20 21  1  0
 21 22  2  0
 22 23  1  0
 23 24  2  0
 24 25  1  0
 25 26  2  0
 26 27  1  0
  2 28  1  0
 28 29  1  0
 29 30  1  0
 30 31  2  0
 31 32  1  0
  9  4  1  0
 18 13  1  0
 27 19  1  0
 26 21  1  0
 32 28  2  0
  3 33  1  0
  5 34  1  0
  6 35  1  0
  7 36  1  0
  9 37  1  0
 12 38  1  0
 14 39  1  0
 15 40  1  0
 16 41  1  0
 18 42  1  0
 22 43  1  0
 23 44  1  0
 24 45  1  0
 25 46  1  0
 27 47  1  0
 30 48  1  0
 31 49  1  0
 32 50  1  0
M  END
>  <Batch_No>  (200) 
OSSK_706042

>  <EC50_nM>  (200) 
745

>  <Set>  (200) 
Drug-like

>  <Molecular_Weight>  (200) 
422.43542

>  <ALogP>  (200) 
4.235

$$$$
MMV084940
     RDKit          3D

 38 40  0  0  0  0  0  0  0  0999 V2000
   -2.0391    1.7122   -0.7617 C   0  0  0  0  0  0  0  0  0  0  0  0
   -2.8345    0.7762   -0.3872 N   0  0  0  0  0  0  0  0  0  0  0  0
   -2.4729   -0.5213    0.1187 C   0  0  0  0  0  0  0  0  0  0  0  0
   -3.7292   -1.3840   -0.0761 C   0  0  0  0  0  0  0  0  0  0  0  0
   -1.3709   -1.2176   -0.5956 C   0  0  0  0  0  0  0  0  0  0  0  0
   -0.0263   -0.6611   -0.3051 C   0  0  0  0  0  0  0  0  0  0  0  0
    0.9102   -1.5912    0.0865 C   0  0  0  0  0  0  0  0  0  0  0  0
    2.1784   -1.1119    0.3679 C   0  0  0  0  0  0  0  0  0  0  0  0
    3.1706   -1.9997    0.7688 O   0  0  0  0  0  0  0  0  0  0  0  0
    2.9724   -3.3788    0.9114 C   0  0  0  0  0  0  0  0  0  0  0  0
    2.5128    0.2250    0.2688 C   0  0  0  0  0  0  0  0  0  0  0  0
    3.8014    0.6328    0.5660 O   0  0  0  0  0  0  0  0  0  0  0  0
    4.1832    1.9878    0.4774 C   0  0  0  0  0  0  0  0  0  0  0  0
    1.5709    1.1606   -0.1251 C   0  0  0  0  0  0  0  0  0  0  0  0
    0.3074    0.6887   -0.4063 C   0  0  0  0  0  0  0  0  0  0  0  0
   -2.2393   -0.5086    1.6133 C   0  0  0  0  0  0  0  0  0  0  0  0
   -0.5755    1.8048   -0.8124 C   0  0  0  0  0  0  0  0  0  0  0  0
   -0.1987    2.9468   -1.2497 N   0  0  0  0  0  0  0  0  0  0  0  0
   -1.2984    3.7569   -1.5460 N   0  0  0  0  0  0  0  0  0  0  0  0
   -2.5010    3.0232   -1.2550 C   0  0  0  0  0  0  0  0  0  0  0  0
   -3.6869    3.3686   -1.3741 O   0  0  0  0  0  0  0  0  0  0  0  0
   -3.6168   -2.3108    0.5125 H   0  0  0  0  0  0  0  0  0  0  0  0
   -3.7369   -1.6652   -1.1698 H   0  0  0  0  0  0  0  0  0  0  0  0
   -4.6199   -0.7919    0.1796 H   0  0  0  0  0  0  0  0  0  0  0  0
   -1.3507   -2.2574   -0.2029 H   0  0  0  0  0  0  0  0  0  0  0  0
   -1.5577   -1.2994   -1.6665 H   0  0  0  0  0  0  0  0  0  0  0  0
    0.6328   -2.6299    0.1586 H   0  0  0  0  0  0  0  0  0  0  0  0
    2.5060   -3.5383    1.9068 H   0  0  0  0  0  0  0  0  0  0  0  0
    2.3537   -3.7294    0.0609 H   0  0  0  0  0  0  0  0  0  0  0  0
    3.9744   -3.8612    0.8943 H   0  0  0  0  0  0  0  0  0  0  0  0
    5.3065    2.0549    0.4298 H   0  0  0  0  0  0  0  0  0  0  0  0
    3.8014    2.5150    1.3675 H   0  0  0  0  0  0  0  0  0  0  0  0
    3.7886    2.4058   -0.4663 H   0  0  0  0  0  0  0  0  0  0  0  0
    1.7727    2.2127   -0.2201 H   0  0  0  0  0  0  0  0  0  0  0  0
   -1.1595   -0.3517    1.8201 H   0  0  0  0  0  0  0  0  0  0  0  0
   -2.8594    0.2753    2.1207 H   0  0  0  0  0  0  0  0  0  0  0  0
   -2.5691   -1.4709    2.0746 H   0  0  0  0  0  0  0  0  0  0  0  0
   -1.3008    4.7329   -1.9166 H   0  0  0  0  0  0  0  0  0  0  0  0
  1  2  2  0
  2  3  1  0
  3  4  1  0
  3  5  1  0
  5  6  1  0
  6  7  1  0
  7  8  2  0
  8  9  1  0
  9 10  1  0
  8 11  1  0
 11 12  1  0
 12 13  1  0
 11 14  2  0
  6 15  2  0
  3 16  1  0
  1 17  1  0
 17 18  2  0
 18 19  1  0
 19 20  1  0
 20 21  2  0
 20  1  1  0
 15 14  1  0
 17 15  1  0
  4 22  1  0
  4 23  1  0
  4 24  1  0
  5 25  1  0
  5 26  1  0
  7 27  1  0
 10 28  1  0
 10 29  1  0
 10 30  1  0
 13 31  1  0
 13 32  1  0
 13 33  1  0
 14 34  1  0
 16 35  1  0
 16 36  1  0
 16 37  1  0
 19 38  1  0
M  END
>  <Batch_No>  (201) 
STK721773

>  <EC50_nM>  (201) 
1040

>  <Set>  (201) 
Drug-like

>  <Molecular_Weight>  (201) 
287.31377

>  <ALogP>  (201) 
1.74

$$$$
MMV396715
     RDKit          3D

 41 45  0  0  0  0  0  0  0  0999 V2000
   -0.6333   -0.3991   -0.2436 N   0  0  0  0  0  0  0  0  0  0  0  0
   -1.0618   -1.5587    0.2686 C   0  0  0  0  0  0  0  0  0  0  0  0
   -2.3843   -1.3958    0.6697 C   0  0  0  0  0  0  0  0  0  0  0  0
   -3.1165   -2.4145    1.2420 C   0  0  0  0  0  0  0  0  0  0  0  0
   -2.5334   -3.6491    1.4326 C   0  0  0  0  0  0  0  0  0  0  0  0
   -1.2247   -3.8532    1.0493 C   0  0  0  0  0  0  0  0  0  0  0  0
   -0.5204   -2.8159    0.4807 C   0  0  0  0  0  0  0  0  0  0  0  0
   -2.7310   -0.1270    0.3884 N   0  0  0  0  0  0  0  0  0  0  0  0
   -1.6576    0.4689   -0.1666 C   0  0  0  0  0  0  0  0  0  0  0  0
   -1.5298    1.8416   -0.6365 C   0  0  0  0  0  0  0  0  0  0  0  0
   -0.3210    2.2380   -1.1683 C   0  0  0  0  0  0  0  0  0  0  0  0
   -0.1371    3.5329   -1.6363 C   0  0  0  0  0  0  0  0  0  0  0  0
   -1.2053    4.4330   -1.5583 C   0  0  0  0  0  0  0  0  0  0  0  0
   -2.4269    4.0619   -1.0299 C   0  0  0  0  0  0  0  0  0  0  0  0
   -2.5407    2.7547   -0.5817 C   0  0  0  0  0  0  0  0  0  0  0  0
    0.7343    1.3185   -1.2321 N   0  0  0  0  0  0  0  0  0  0  0  0
    0.6620   -0.0624   -0.7974 C   0  0  0  0  0  0  0  0  0  0  0  0
    0.9490   -0.8745   -2.0649 C   0  0  0  0  0  0  0  0  0  0  0  0
    1.7548   -0.2507    0.2072 C   0  0  0  0  0  0  0  0  0  0  0  0
    1.7089    0.5731    1.3146 C   0  0  0  0  0  0  0  0  0  0  0  0
    2.6841    0.4780    2.3145 C   0  0  0  0  0  0  0  0  0  0  0  0
    3.6848   -0.4635    2.1517 C   0  0  0  0  0  0  0  0  0  0  0  0
    3.7274   -1.2925    1.0333 C   0  0  0  0  0  0  0  0  0  0  0  0
    2.7545   -1.1938    0.0409 C   0  0  0  0  0  0  0  0  0  0  0  0
   -4.1408   -2.2400    1.5375 H   0  0  0  0  0  0  0  0  0  0  0  0
   -3.0661   -4.4838    1.8785 H   0  0  0  0  0  0  0  0  0  0  0  0
   -0.7856   -4.8365    1.2098 H   0  0  0  0  0  0  0  0  0  0  0  0
    0.4976   -3.0166    0.1969 H   0  0  0  0  0  0  0  0  0  0  0  0
    0.7993    3.8767   -2.0600 H   0  0  0  0  0  0  0  0  0  0  0  0
   -1.0424    5.4544   -1.9336 H   0  0  0  0  0  0  0  0  0  0  0  0
   -3.2512    4.7602   -0.9708 H   0  0  0  0  0  0  0  0  0  0  0  0
   -3.4882    2.4575   -0.1686 H   0  0  0  0  0  0  0  0  0  0  0  0
    1.6440    1.6382   -1.6185 H   0  0  0  0  0  0  0  0  0  0  0  0
    0.0757   -0.6307   -2.7344 H   0  0  0  0  0  0  0  0  0  0  0  0
    1.8386   -0.4275   -2.5497 H   0  0  0  0  0  0  0  0  0  0  0  0
    0.9986   -1.9471   -1.8836 H   0  0  0  0  0  0  0  0  0  0  0  0
    0.9140    1.3239    1.4480 H   0  0  0  0  0  0  0  0  0  0  0  0
    2.6281    1.1356    3.1759 H   0  0  0  0  0  0  0  0  0  0  0  0
    4.4601   -0.5583    2.9200 H   0  0  0  0  0  0  0  0  0  0  0  0
    4.5273   -2.0362    0.9154 H   0  0  0  0  0  0  0  0  0  0  0  0
    2.7549   -1.8196   -0.8407 H   0  0  0  0  0  0  0  0  0  0  0  0
  1  2  1  0
  2  3  1  0
  3  4  2  0
  4  5  1  0
  5  6  2  0
  6  7  1  0
  3  8  1  0
  1  9  1  0
  9 10  1  0
 10 11  2  0
 11 12  1  0
 12 13  2  0
 13 14  1  0
 14 15  2  0
 11 16  1  0
 16 17  1  0
 17 18  1  0
 17 19  1  0
 19 20  2  0
 20 21  1  0
 21 22  2  0
 22 23  1  0
 23 24  2  0
 17  1  1  0
  7  2  2  0
  9  8  2  0
 15 10  1  0
 24 19  1  0
  4 25  1  0
  5 26  1  0
  6 27  1  0
  7 28  1  0
 12 29  1  0
 13 30  1  0
 14 31  1  0
 15 32  1  0
 16 33  1  0
 18 34  1  0
 18 35  1  0
 18 36  1  0
 20 37  1  0
 21 38  1  0
 22 39  1  0
 23 40  1  0
 24 41  1  0
M  END
>  <Batch_No>  (202) 
6893-0066

>  <EC50_nM>  (202) 
1730

>  <Set>  (202) 
Drug-like

>  <Molecular_Weight>  (202) 
311.37978

>  <ALogP>  (202) 
4.826

$$$$
MMV000963
     RDKit          3D

 47 50  0  0  0  0  0  0  0  0999 V2000
   -0.4757   -0.1728    0.0088 N   0  0  0  0  0  0  0  0  0  0  0  0
   -1.4426    0.6370    0.4630 C   0  0  0  0  0  0  0  0  0  0  0  0
   -2.8178    0.2426    0.3304 N   0  0  0  0  0  0  0  0  0  0  0  0
   -3.1062   -1.0278   -0.2956 C   0  0  0  0  0  0  0  0  0  0  0  0
   -4.5747   -1.2279   -0.3261 C   0  0  0  0  0  0  0  0  0  0  0  0
   -5.2079   -1.8590    0.7279 C   0  0  0  0  0  0  0  0  0  0  0  0
   -6.5607   -2.0681    0.7483 C   0  0  0  0  0  0  0  0  0  0  0  0
   -7.3067   -1.6239   -0.3362 C   0  0  0  0  0  0  0  0  0  0  0  0
   -6.6995   -0.9942   -1.3949 C   0  0  0  0  0  0  0  0  0  0  0  0
   -5.3198   -0.7902   -1.3976 C   0  0  0  0  0  0  0  0  0  0  0  0
   -1.0677    1.8276    1.0447 C   0  0  0  0  0  0  0  0  0  0  0  0
    0.2648    2.1656    1.1511 C   0  0  0  0  0  0  0  0  0  0  0  0
    0.6868    3.3526    1.7287 C   0  0  0  0  0  0  0  0  0  0  0  0
   -0.2575    4.2321    2.2169 C   0  0  0  0  0  0  0  0  0  0  0  0
   -1.6014    3.8915    2.1099 C   0  0  0  0  0  0  0  0  0  0  0  0
   -2.0086    2.7069    1.5327 C   0  0  0  0  0  0  0  0  0  0  0  0
    1.1541    1.2853    0.6650 N   0  0  0  0  0  0  0  0  0  0  0  0
    0.8562    0.1142    0.0895 C   0  0  0  0  0  0  0  0  0  0  0  0
    1.7820   -0.8097   -0.4203 N   0  0  0  0  0  0  0  0  0  0  0  0
    3.1773   -0.7084   -0.4362 C   0  0  0  0  0  0  0  0  0  0  0  0
    3.9277   -1.7395   -0.9918 C   0  0  0  0  0  0  0  0  0  0  0  0
    5.3004   -1.7234   -1.0496 C   0  0  0  0  0  0  0  0  0  0  0  0
    3.9065    0.3513    0.0626 C   0  0  0  0  0  0  0  0  0  0  0  0
    5.3009    0.3841    0.0122 C   0  0  0  0  0  0  0  0  0  0  0  0
    6.0092   -0.6557   -0.5457 C   0  0  0  0  0  0  0  0  0  0  0  0
    7.3944   -0.5733   -0.5706 O   0  0  0  0  0  0  0  0  0  0  0  0
    8.2168   -1.5764   -1.1155 C   0  0  0  0  0  0  0  0  0  0  0  0
   -3.6109    0.8184    0.6584 H   0  0  0  0  0  0  0  0  0  0  0  0
   -2.7234   -0.9822   -1.3349 H   0  0  0  0  0  0  0  0  0  0  0  0
   -2.6332   -1.8694    0.2783 H   0  0  0  0  0  0  0  0  0  0  0  0
   -4.6287   -2.1962    1.5548 H   0  0  0  0  0  0  0  0  0  0  0  0
   -7.0163   -2.5693    1.5990 H   0  0  0  0  0  0  0  0  0  0  0  0
   -8.3937   -1.7904   -0.3229 H   0  0  0  0  0  0  0  0  0  0  0  0
   -7.2870   -0.6443   -2.2492 H   0  0  0  0  0  0  0  0  0  0  0  0
   -4.7981   -0.3056   -2.1967 H   0  0  0  0  0  0  0  0  0  0  0  0
    1.7409    3.6123    1.8089 H   0  0  0  0  0  0  0  0  0  0  0  0
   -0.0125    5.1769    2.6811 H   0  0  0  0  0  0  0  0  0  0  0  0
   -2.3434    4.5888    2.4966 H   0  0  0  0  0  0  0  0  0  0  0  0
   -3.0555    2.5101    1.4839 H   0  0  0  0  0  0  0  0  0  0  0  0
    1.3693   -1.6969   -0.8473 H   0  0  0  0  0  0  0  0  0  0  0  0
    3.4459   -2.6296   -1.4171 H   0  0  0  0  0  0  0  0  0  0  0  0
    5.8446   -2.5561   -1.4952 H   0  0  0  0  0  0  0  0  0  0  0  0
    3.4305    1.1831    0.5046 H   0  0  0  0  0  0  0  0  0  0  0  0
    5.8490    1.2344    0.4143 H   0  0  0  0  0  0  0  0  0  0  0  0
    7.7881   -2.5536   -0.8753 H   0  0  0  0  0  0  0  0  0  0  0  0
    8.2975   -1.4473   -2.2151 H   0  0  0  0  0  0  0  0  0  0  0  0
    9.2067   -1.5237   -0.6191 H   0  0  0  0  0  0  0  0  0  0  0  0
  1  2  2  0
  2  3  1  0
  3  4  1  0
  4  5  1  0
  5  6  2  0
  6  7  1  0
  7  8  2  0
  8  9  1  0
  9 10  2  0
  2 11  1  0
 11 12  2  0
 12 13  1  0
 13 14  2  0
 14 15  1  0
 15 16  2  0
 12 17  1  0
 17 18  2  0
 18 19  1  0
 19 20  1  0
 20 21  2  0
 21 22  1  0
 20 23  1  0
 23 24  2  0
 24 25  1  0
 25 26  1  0
 26 27  1  0
 18  1  1  0
 10  5  1  0
 16 11  1  0
 25 22  2  0
  3 28  1  0
  4 29  1  0
  4 30  1  0
  6 31  1  0
  7 32  1  0
  8 33  1  0
  9 34  1  0
 10 35  1  0
 13 36  1  0
 14 37  1  0
 15 38  1  0
 16 39  1  0
 19 40  1  0
 21 41  1  0
 22 42  1  0
 23 43  1  0
 24 44  1  0
 27 45  1  0
 27 46  1  0
 27 47  1  0
M  END
>  <Batch_No>  (203) 
STK154807

>  <EC50_nM>  (203) 
589

>  <Set>  (203) 
Drug-like

>  <Molecular_Weight>  (203) 
356.42039

>  <ALogP>  (203) 
4.264

$$$$
MMV006319
     RDKit          3D

 40 42  0  0  0  0  0  0  0  0999 V2000
   -0.3603   -0.7889    4.3584 C   0  0  0  0  0  0  0  0  0  0  0  0
   -0.5648   -0.8224    2.8802 C   0  0  0  0  0  0  0  0  0  0  0  0
   -1.7485   -1.2450    2.3107 C   0  0  0  0  0  0  0  0  0  0  0  0
   -1.8273   -1.2512    0.9454 C   0  0  0  0  0  0  0  0  0  0  0  0
   -2.9728   -1.6421    0.1990 N   0  0  0  0  0  0  0  0  0  0  0  0
   -3.7440   -0.6811   -0.5159 C   0  0  0  0  0  0  0  0  0  0  0  0
   -3.5342    0.6699   -0.4038 C   0  0  0  0  0  0  0  0  0  0  0  0
   -4.3076    1.5701   -1.1489 C   0  0  0  0  0  0  0  0  0  0  0  0
   -5.2977    1.0670   -2.0088 C   0  0  0  0  0  0  0  0  0  0  0  0
   -5.5132   -0.2836   -2.1259 C   0  0  0  0  0  0  0  0  0  0  0  0
   -6.4611   -0.7958   -2.9487 F   0  0  0  0  0  0  0  0  0  0  0  0
   -4.7400   -1.1487   -1.3825 C   0  0  0  0  0  0  0  0  0  0  0  0
   -0.7619   -0.8498    0.1866 N   0  0  0  0  0  0  0  0  0  0  0  0
    0.3866   -0.4392    0.7463 C   0  0  0  0  0  0  0  0  0  0  0  0
    1.5037   -0.0229   -0.0490 N   0  0  0  0  0  0  0  0  0  0  0  0
    2.7383    0.4419    0.5685 C   0  0  0  0  0  0  0  0  0  0  0  0
    3.7603    0.7127   -0.4722 C   0  0  0  0  0  0  0  0  0  0  0  0
    4.5678   -0.3731   -0.8230 C   0  0  0  0  0  0  0  0  0  0  0  0
    5.5578   -0.2661   -1.7717 C   0  0  0  0  0  0  0  0  0  0  0  0
    5.7341    0.9691   -2.3792 C   0  0  0  0  0  0  0  0  0  0  0  0
    4.9305    2.0367   -2.0260 C   0  0  0  0  0  0  0  0  0  0  0  0
    3.9507    1.9165   -1.0824 C   0  0  0  0  0  0  0  0  0  0  0  0
    0.4813   -0.4267    2.0969 N   0  0  0  0  0  0  0  0  0  0  0  0
    0.6293   -1.2922    4.5989 H   0  0  0  0  0  0  0  0  0  0  0  0
   -1.1011   -1.4361    4.8730 H   0  0  0  0  0  0  0  0  0  0  0  0
   -0.3869    0.2440    4.7280 H   0  0  0  0  0  0  0  0  0  0  0  0
   -2.5957   -1.5650    2.9020 H   0  0  0  0  0  0  0  0  0  0  0  0
   -3.2373   -2.6712    0.1877 H   0  0  0  0  0  0  0  0  0  0  0  0
   -2.7621    1.0446    0.2641 H   0  0  0  0  0  0  0  0  0  0  0  0
   -4.1599    2.6420   -1.0782 H   0  0  0  0  0  0  0  0  0  0  0  0
   -5.9166    1.7259   -2.6067 H   0  0  0  0  0  0  0  0  0  0  0  0
   -4.9173   -2.2325   -1.4808 H   0  0  0  0  0  0  0  0  0  0  0  0
    1.3861   -0.0677   -1.1024 H   0  0  0  0  0  0  0  0  0  0  0  0
    3.1171   -0.3680    1.2198 H   0  0  0  0  0  0  0  0  0  0  0  0
    2.5952    1.3476    1.1974 H   0  0  0  0  0  0  0  0  0  0  0  0
    4.4267   -1.3308   -0.3459 H   0  0  0  0  0  0  0  0  0  0  0  0
    6.1451   -1.1360   -2.0039 H   0  0  0  0  0  0  0  0  0  0  0  0
    6.5176    1.0264   -3.1228 H   0  0  0  0  0  0  0  0  0  0  0  0
    5.1449    2.9715   -2.5650 H   0  0  0  0  0  0  0  0  0  0  0  0
    3.3373    2.7501   -0.8193 H   0  0  0  0  0  0  0  0  0  0  0  0
  1  2  1  0
  2  3  2  0
  3  4  1  0
  4  5  1  0
  5  6  1  0
  6  7  2  0
  7  8  1  0
  8  9  2  0
  9 10  1  0
 10 11  1  0
 10 12  2  0
  4 13  2  0
 13 14  1  0
 14 15  1  0
 15 16  1  0
 16 17  1  0
 17 18  2  0
 18 19  1  0
 19 20  2  0
 20 21  1  0
 21 22  2  0
 14 23  2  0
 23  2  1  0
 12  6  1  0
 22 17  1  0
  1 24  1  0
  1 25  1  0
  1 26  1  0
  3 27  1  0
  5 28  1  0
  7 29  1  0
  8 30  1  0
  9 31  1  0
 12 32  1  0
 15 33  1  0
 16 34  1  0
 16 35  1  0
 18 36  1  0
 19 37  1  0
 20 38  1  0
 21 39  1  0
 22 40  1  0
M  END
>  <Batch_No>  (204) 
STK839477

>  <EC50_nM>  (204) 
662

>  <Set>  (204) 
Drug-like

>  <Molecular_Weight>  (204) 
308.35278

>  <ALogP>  (204) 
3.432

$$$$
MMV000972
     RDKit          3D

 26 27  0  0  0  0  0  0  0  0999 V2000
   -1.5266   -0.0941   -1.6494 O   0  0  0  0  0  0  0  0  0  0  0  0
   -1.2711    0.2849   -0.3141 C   0  0  0  0  0  0  0  0  0  0  0  0
   -0.7456    1.6840   -0.3655 C   0  0  0  0  0  0  0  0  0  0  0  0
    0.7181    1.7649   -0.2209 C   0  0  0  0  0  0  0  0  0  0  0  0
    1.2446    2.9065   -0.2410 O   0  0  0  0  0  0  0  0  0  0  0  0
    1.5895    0.6081   -0.0566 C   0  0  0  0  0  0  0  0  0  0  0  0
    2.9521    0.7623   -0.1321 C   0  0  0  0  0  0  0  0  0  0  0  0
    3.7646   -0.3307    0.0235 C   0  0  0  0  0  0  0  0  0  0  0  0
    3.1748   -1.5569    0.2525 C   0  0  0  0  0  0  0  0  0  0  0  0
    1.8003   -1.7104    0.3283 C   0  0  0  0  0  0  0  0  0  0  0  0
    0.9804   -0.6061    0.1711 C   0  0  0  0  0  0  0  0  0  0  0  0
   -0.3844   -0.6621    0.2300 O   0  0  0  0  0  0  0  0  0  0  0  0
   -2.5855    0.3457    0.4401 C   0  0  0  0  0  0  0  0  0  0  0  0
   -3.3937    1.2645   -0.1615 F   0  0  0  0  0  0  0  0  0  0  0  0
   -2.2836    0.7624    1.7395 F   0  0  0  0  0  0  0  0  0  0  0  0
   -3.2551   -0.9836    0.5734 C   0  0  0  0  0  0  0  0  0  0  0  0
   -2.4365   -1.8621    1.2544 F   0  0  0  0  0  0  0  0  0  0  0  0
   -4.4480   -0.7542    1.2449 F   0  0  0  0  0  0  0  0  0  0  0  0
   -3.5543   -1.5718   -0.6249 F   0  0  0  0  0  0  0  0  0  0  0  0
   -1.5380   -1.0825   -1.7605 H   0  0  0  0  0  0  0  0  0  0  0  0
   -1.1720    2.3117    0.4545 H   0  0  0  0  0  0  0  0  0  0  0  0
   -1.0087    2.1969   -1.3325 H   0  0  0  0  0  0  0  0  0  0  0  0
    3.4064    1.7306   -0.3125 H   0  0  0  0  0  0  0  0  0  0  0  0
    4.8383   -0.2844   -0.0233 H   0  0  0  0  0  0  0  0  0  0  0  0
    3.8037   -2.4424    0.3796 H   0  0  0  0  0  0  0  0  0  0  0  0
    1.3303   -2.6814    0.5097 H   0  0  0  0  0  0  0  0  0  0  0  0
  1  2  1  0
  2  3  1  0
  3  4  1  0
  4  5  2  0
  4  6  1  0
  6  7  2  0
  7  8  1  0
  8  9  2  0
  9 10  1  0
 10 11  2  0
 11 12  1  0
  2 13  1  0
 13 14  1  0
 13 15  1  0
 13 16  1  0
 16 17  1  0
 16 18  1  0
 16 19  1  0
 12  2  1  0
 11  6  1  0
  1 20  1  0
  3 21  1  0
  3 22  1  0
  7 23  1  0
  8 24  1  0
  9 25  1  0
 10 26  1  0
M  END
>  <Batch_No>  (205) 
STK084300

>  <EC50_nM>  (205) 
ND

>  <Set>  (205) 
Drug-like

>  <Molecular_Weight>  (205) 
282.16349

>  <ALogP>  (205) 
2.625

$$$$
MMV020490
     RDKit          3D

 58 62  0  0  0  0  0  0  0  0999 V2000
    0.8607   -3.0672    3.2423 Cl  0  0  0  0  0  0  0  0  0  0  0  0
    2.0967   -2.1196    2.4510 C   0  0  0  0  0  0  0  0  0  0  0  0
    3.3076   -1.9933    3.0980 C   0  0  0  0  0  0  0  0  0  0  0  0
    4.2741   -1.2394    2.4590 C   0  0  0  0  0  0  0  0  0  0  0  0
    4.0440   -0.6526    1.2559 C   0  0  0  0  0  0  0  0  0  0  0  0
    5.0250    0.0664    0.6957 N   0  0  0  0  0  0  0  0  0  0  0  0
    4.8821    0.6952   -0.5116 C   0  0  0  0  0  0  0  0  0  0  0  0
    3.6474    0.5334   -1.1092 C   0  0  0  0  0  0  0  0  0  0  0  0
    2.6195   -0.1953   -0.5654 C   0  0  0  0  0  0  0  0  0  0  0  0
    1.3741   -0.2596   -1.3138 C   0  0  0  0  0  0  0  0  0  0  0  0
    1.4319   -0.7003   -2.4857 O   0  0  0  0  0  0  0  0  0  0  0  0
    0.1202    0.1370   -0.8158 N   0  0  0  0  0  0  0  0  0  0  0  0
   -1.0704    0.0527   -1.6196 C   0  0  0  0  0  0  0  0  0  0  0  0
   -1.7444    1.4161   -1.5730 C   0  0  0  0  0  0  0  0  0  0  0  0
   -2.5824    1.5746   -0.3469 C   0  0  0  0  0  0  0  0  0  0  0  0
   -3.6885    0.6396   -0.3360 N   0  0  0  0  0  0  0  0  0  0  0  0
   -4.3077    0.5236    0.9358 C   0  0  0  0  0  0  0  0  0  0  0  0
   -5.4496   -0.4082    0.9262 C   0  0  0  0  0  0  0  0  0  0  0  0
   -5.3648   -1.7487    1.2485 C   0  0  0  0  0  0  0  0  0  0  0  0
   -6.4949   -2.5304    1.2037 C   0  0  0  0  0  0  0  0  0  0  0  0
   -7.7392   -2.0681    0.8535 C   0  0  0  0  0  0  0  0  0  0  0  0
   -7.8292   -0.7196    0.5288 C   0  0  0  0  0  0  0  0  0  0  0  0
   -6.7007    0.0655    0.5720 C   0  0  0  0  0  0  0  0  0  0  0  0
   -3.4155   -0.5539   -1.0260 C   0  0  0  0  0  0  0  0  0  0  0  0
   -1.9702   -0.9922   -0.9880 C   0  0  0  0  0  0  0  0  0  0  0  0
    2.8205   -0.8059    0.6485 C   0  0  0  0  0  0  0  0  0  0  0  0
    1.8082   -1.5509    1.2374 C   0  0  0  0  0  0  0  0  0  0  0  0
    5.9661    1.4612   -1.0898 C   0  0  0  0  0  0  0  0  0  0  0  0
    5.9231    2.1171   -2.2836 C   0  0  0  0  0  0  0  0  0  0  0  0
    6.9996    2.8393   -2.7910 C   0  0  0  0  0  0  0  0  0  0  0  0
    8.1514    2.8739   -2.0242 C   0  0  0  0  0  0  0  0  0  0  0  0
    8.2234    2.2316   -0.8329 N   0  0  0  0  0  0  0  0  0  0  0  0
    7.1571    1.5394   -0.3726 C   0  0  0  0  0  0  0  0  0  0  0  0
    3.5332   -2.4304    4.0394 H   0  0  0  0  0  0  0  0  0  0  0  0
    5.2184   -1.1274    2.9417 H   0  0  0  0  0  0  0  0  0  0  0  0
    3.5086    1.0182   -2.0596 H   0  0  0  0  0  0  0  0  0  0  0  0
    0.0326    0.5078    0.1537 H   0  0  0  0  0  0  0  0  0  0  0  0
   -0.8893   -0.2306   -2.6646 H   0  0  0  0  0  0  0  0  0  0  0  0
   -0.9997    2.2361   -1.5835 H   0  0  0  0  0  0  0  0  0  0  0  0
   -2.3867    1.5488   -2.4656 H   0  0  0  0  0  0  0  0  0  0  0  0
   -1.9442    1.2888    0.5203 H   0  0  0  0  0  0  0  0  0  0  0  0
   -2.8862    2.6107   -0.2096 H   0  0  0  0  0  0  0  0  0  0  0  0
   -3.5918    0.2617    1.7505 H   0  0  0  0  0  0  0  0  0  0  0  0
   -4.7364    1.5167    1.2582 H   0  0  0  0  0  0  0  0  0  0  0  0
   -4.4122   -2.1616    1.5321 H   0  0  0  0  0  0  0  0  0  0  0  0
   -6.4183   -3.5934    1.4590 H   0  0  0  0  0  0  0  0  0  0  0  0
   -8.5895   -2.7356    0.8383 H   0  0  0  0  0  0  0  0  0  0  0  0
   -8.8128   -0.3554    0.2528 H   0  0  0  0  0  0  0  0  0  0  0  0
   -6.7934    1.1151    0.3140 H   0  0  0  0  0  0  0  0  0  0  0  0
   -4.0495   -1.3832   -0.6943 H   0  0  0  0  0  0  0  0  0  0  0  0
   -3.7329   -0.3844   -2.1047 H   0  0  0  0  0  0  0  0  0  0  0  0
   -1.8902   -1.9129   -1.5874 H   0  0  0  0  0  0  0  0  0  0  0  0
   -1.6431   -1.2213    0.0378 H   0  0  0  0  0  0  0  0  0  0  0  0
    0.8677   -1.6465    0.7181 H   0  0  0  0  0  0  0  0  0  0  0  0
    5.0353    2.0840   -2.8621 H   0  0  0  0  0  0  0  0  0  0  0  0
    6.9312    3.3556   -3.7574 H   0  0  0  0  0  0  0  0  0  0  0  0
    8.9853    3.4253   -2.4026 H   0  0  0  0  0  0  0  0  0  0  0  0
    7.2888    1.0522    0.5849 H   0  0  0  0  0  0  0  0  0  0  0  0
  1  2  1  0
  2  3  2  0
  3  4  1  0
  4  5  2  0
  5  6  1  0
  6  7  2  0
  7  8  1  0
  8  9  2  0
  9 10  1  0
 10 11  2  0
 10 12  1  0
 12 13  1  0
 13 14  1  0
 14 15  1  0
 15 16  1  0
 16 17  1  0
 17 18  1  0
 18 19  2  0
 19 20  1  0
 20 21  2  0
 21 22  1  0
 22 23  2  0
 16 24  1  0
 24 25  1  0
  9 26  1  0
 26 27  2  0
  7 28  1  0
 28 29  2  0
 29 30  1  0
 30 31  2  0
 31 32  1  0
 32 33  2  0
 27  2  1  0
 26  5  1  0
 25 13  1  0
 23 18  1  0
 33 28  1  0
  3 34  1  0
  4 35  1  0
  8 36  1  0
 12 37  1  0
 13 38  1  0
 14 39  1  0
 14 40  1  0
 15 41  1  0
 15 42  1  0
 17 43  1  0
 17 44  1  0
 19 45  1  0
 20 46  1  0
 21 47  1  0
 22 48  1  0
 23 49  1  0
 24 50  1  0
 24 51  1  0
 25 52  1  0
 25 53  1  0
 27 54  1  0
 29 55  1  0
 30 56  1  0
 31 57  1  0
 33 58  1  0
M  END
>  <Batch_No>  (206) 
STK446111

>  <EC50_nM>  (206) 
1010

>  <Set>  (206) 
Drug-like

>  <Molecular_Weight>  (206) 
456.9666

>  <ALogP>  (206) 
4.379

$$$$
MMV001318
     RDKit          3D

 28 29  0  0  0  0  0  0  0  0999 V2000
    5.0444   -1.1229    2.9778 Cl  0  0  0  0  0  0  0  0  0  0  0  0
    4.3462   -0.3856    1.5572 C   0  0  0  0  0  0  0  0  0  0  0  0
    4.9904    0.6463    0.9139 C   0  0  0  0  0  0  0  0  0  0  0  0
    4.4414    1.2389   -0.2177 C   0  0  0  0  0  0  0  0  0  0  0  0
    3.2419    0.7952   -0.7064 C   0  0  0  0  0  0  0  0  0  0  0  0
    2.5746   -0.2423   -0.0758 C   0  0  0  0  0  0  0  0  0  0  0  0
    1.3262   -0.7378   -0.5458 N   0  0  0  0  0  0  0  0  0  0  0  0
    0.0828   -0.2045   -0.0977 C   0  0  0  0  0  0  0  0  0  0  0  0
    0.1131    0.7152    0.7238 O   0  0  0  0  0  0  0  0  0  0  0  0
   -1.1167   -0.7206   -0.5851 N   0  0  0  0  0  0  0  0  0  0  0  0
   -2.4246   -0.3145   -0.2520 C   0  0  0  0  0  0  0  0  0  0  0  0
   -3.5066   -0.9632   -0.8551 C   0  0  0  0  0  0  0  0  0  0  0  0
   -4.8119   -0.6227   -0.5805 C   0  0  0  0  0  0  0  0  0  0  0  0
   -5.1281    0.3825    0.3096 C   0  0  0  0  0  0  0  0  0  0  0  0
   -6.9045    0.8837    0.7172 Br  0  0  0  0  0  0  0  0  0  0  0  0
   -4.0695    1.0299    0.9111 C   0  0  0  0  0  0  0  0  0  0  0  0
   -2.7527    0.6842    0.6320 C   0  0  0  0  0  0  0  0  0  0  0  0
    3.1284   -0.8183    1.0410 C   0  0  0  0  0  0  0  0  0  0  0  0
    5.9463    1.0034    1.2994 H   0  0  0  0  0  0  0  0  0  0  0  0
    4.9224    2.0484   -0.7426 H   0  0  0  0  0  0  0  0  0  0  0  0
    2.7689    1.2331   -1.5984 H   0  0  0  0  0  0  0  0  0  0  0  0
    1.3830   -1.5230   -1.2453 H   0  0  0  0  0  0  0  0  0  0  0  0
   -1.0353   -1.5142   -1.2916 H   0  0  0  0  0  0  0  0  0  0  0  0
   -3.3419   -1.7732   -1.5743 H   0  0  0  0  0  0  0  0  0  0  0  0
   -5.6013   -1.1635   -1.0808 H   0  0  0  0  0  0  0  0  0  0  0  0
   -4.2728    1.8402    1.6297 H   0  0  0  0  0  0  0  0  0  0  0  0
   -2.0022    1.2334    1.1390 H   0  0  0  0  0  0  0  0  0  0  0  0
    2.6580   -1.6281    1.5750 H   0  0  0  0  0  0  0  0  0  0  0  0
  1  2  1  0
  2  3  2  0
  3  4  1  0
  4  5  2  0
  5  6  1  0
  6  7  1  0
  7  8  1  0
  8  9  2  0
  8 10  1  0
 10 11  1  0
 11 12  2  0
 12 13  1  0
 13 14  2  0
 14 15  1  0
 14 16  1  0
 16 17  2  0
  6 18  2  0
 18  2  1  0
 17 11  1  0
  3 19  1  0
  4 20  1  0
  5 21  1  0
  7 22  1  0
 10 23  1  0
 12 24  1  0
 13 25  1  0
 16 26  1  0
 17 27  1  0
 18 28  1  0
M  END
>  <Batch_No>  (207) 
STK947950

>  <EC50_nM>  (207) 
ND

>  <Set>  (207) 
Drug-like

>  <Molecular_Weight>  (207) 
325.5883

>  <ALogP>  (207) 
3.935

$$$$
MMV007978
     RDKit          3D

 43 44  0  0  0  0  0  0  0  0999 V2000
   -6.3549    0.6447    2.1043 C   0  0  0  0  0  0  0  0  0  0  0  0
   -4.8596    0.9584    2.1878 C   0  0  0  0  0  0  0  0  0  0  0  0
   -4.2204    0.4924    1.0259 O   0  0  0  0  0  0  0  0  0  0  0  0
   -2.8613    0.6121    0.7716 C   0  0  0  0  0  0  0  0  0  0  0  0
   -1.9704    1.2050    1.6312 C   0  0  0  0  0  0  0  0  0  0  0  0
   -0.6149    1.3071    1.3429 C   0  0  0  0  0  0  0  0  0  0  0  0
   -0.1536    0.7986    0.1610 C   0  0  0  0  0  0  0  0  0  0  0  0
    1.3054    0.8808   -0.2047 C   0  0  0  0  0  0  0  0  0  0  0  0
    1.9388   -0.3748    0.3356 C   0  0  0  0  0  0  0  0  0  0  0  0
    3.3612   -0.4649    0.0710 N   0  0  0  0  0  0  0  0  0  0  0  0
    4.1886    0.5533    0.5940 C   0  0  0  0  0  0  0  0  0  0  0  0
    3.7742    1.5282    1.2710 O   0  0  0  0  0  0  0  0  0  0  0  0
    5.6103    0.4757    0.3372 C   0  0  0  0  0  0  0  0  0  0  0  0
    6.3276   -0.4988   -0.3839 C   0  0  0  0  0  0  0  0  0  0  0  0
    7.6464   -0.3242   -0.4662 C   0  0  0  0  0  0  0  0  0  0  0  0
    8.2222    0.7474    0.1274 C   0  0  0  0  0  0  0  0  0  0  0  0
    6.8511    1.6557    0.9022 S   0  0  0  0  0  0  0  0  0  0  0  0
   -1.0461    0.2049   -0.6996 C   0  0  0  0  0  0  0  0  0  0  0  0
   -2.3927    0.1001   -0.4200 C   0  0  0  0  0  0  0  0  0  0  0  0
   -3.2383   -0.5192   -1.3488 O   0  0  0  0  0  0  0  0  0  0  0  0
   -2.6677   -1.0074   -2.5300 C   0  0  0  0  0  0  0  0  0  0  0  0
   -3.7497   -1.6392   -3.3978 C   0  0  0  0  0  0  0  0  0  0  0  0
   -6.5297   -0.3965    2.4767 H   0  0  0  0  0  0  0  0  0  0  0  0
   -6.6419    0.7181    1.0397 H   0  0  0  0  0  0  0  0  0  0  0  0
   -6.9239    1.3506    2.7180 H   0  0  0  0  0  0  0  0  0  0  0  0
   -4.7565    2.0464    2.2767 H   0  0  0  0  0  0  0  0  0  0  0  0
   -4.4903    0.3799    3.0591 H   0  0  0  0  0  0  0  0  0  0  0  0
   -2.3555    1.6051    2.5694 H   0  0  0  0  0  0  0  0  0  0  0  0
    0.0844    1.7788    2.0304 H   0  0  0  0  0  0  0  0  0  0  0  0
    1.6720    1.7904    0.2868 H   0  0  0  0  0  0  0  0  0  0  0  0
    1.3350    0.8984   -1.2968 H   0  0  0  0  0  0  0  0  0  0  0  0
    1.3970   -1.2531   -0.0607 H   0  0  0  0  0  0  0  0  0  0  0  0
    1.8350   -0.4239    1.4368 H   0  0  0  0  0  0  0  0  0  0  0  0
    3.7479   -1.2582   -0.4870 H   0  0  0  0  0  0  0  0  0  0  0  0
    5.7595   -1.3319   -0.8278 H   0  0  0  0  0  0  0  0  0  0  0  0
    8.2951   -1.0552   -1.0234 H   0  0  0  0  0  0  0  0  0  0  0  0
    9.2445    1.0456    0.1665 H   0  0  0  0  0  0  0  0  0  0  0  0
   -0.6513   -0.1882   -1.6272 H   0  0  0  0  0  0  0  0  0  0  0  0
   -1.9519   -1.8316   -2.2643 H   0  0  0  0  0  0  0  0  0  0  0  0
   -2.0890   -0.2660   -3.1105 H   0  0  0  0  0  0  0  0  0  0  0  0
   -4.1113   -2.5791   -2.9521 H   0  0  0  0  0  0  0  0  0  0  0  0
   -3.3732   -1.8287   -4.4284 H   0  0  0  0  0  0  0  0  0  0  0  0
   -4.5922   -0.8923   -3.3942 H   0  0  0  0  0  0  0  0  0  0  0  0
  1  2  1  0
  2  3  1  0
  3  4  1  0
  4  5  2  0
  5  6  1  0
  6  7  2  0
  7  8  1  0
  8  9  1  0
  9 10  1  0
 10 11  1  0
 11 12  2  0
 11 13  1  0
 13 14  2  0
 14 15  1  0
 15 16  2  0
 16 17  1  0
  7 18  1  0
 18 19  2  0
 19 20  1  0
 20 21  1  0
 21 22  1  0
 19  4  1  0
 17 13  1  0
  1 23  1  0
  1 24  1  0
  1 25  1  0
  2 26  1  0
  2 27  1  0
  5 28  1  0
  6 29  1  0
  8 30  1  0
  8 31  1  0
  9 32  1  0
  9 33  1  0
 10 34  1  0
 14 35  1  0
 15 36  1  0
 16 37  1  0
 18 38  1  0
 21 39  1  0
 21 40  1  0
 22 41  1  0
 22 42  1  0
 22 43  1  0
M  END
>  <Batch_No>  (208) 
STK766133

>  <EC50_nM>  (208) 
ND

>  <Set>  (208) 
Drug-like

>  <Molecular_Weight>  (208) 
319.41853

>  <ALogP>  (208) 
3.561

$$$$
MMV020660
     RDKit          3D

 39 41  0  0  0  0  0  0  0  0999 V2000
   -4.9536    2.3725   -0.4148 C   0  0  0  0  0  0  0  0  0  0  0  0
   -4.2460    1.1892   -0.0527 O   0  0  0  0  0  0  0  0  0  0  0  0
   -3.0882    0.8574   -0.7326 C   0  0  0  0  0  0  0  0  0  0  0  0
   -2.6369    1.6823   -1.7544 C   0  0  0  0  0  0  0  0  0  0  0  0
   -1.4760    1.3157   -2.4093 C   0  0  0  0  0  0  0  0  0  0  0  0
   -0.7803    0.1569   -2.0568 C   0  0  0  0  0  0  0  0  0  0  0  0
   -1.2284   -0.6634   -1.0413 C   0  0  0  0  0  0  0  0  0  0  0  0
   -2.3971   -0.2886   -0.3865 C   0  0  0  0  0  0  0  0  0  0  0  0
   -2.8968   -1.0566    0.6296 O   0  0  0  0  0  0  0  0  0  0  0  0
   -2.3439   -2.2408    1.1185 C   0  0  0  0  0  0  0  0  0  0  0  0
    0.4292   -0.1155   -2.8260 C   0  0  0  0  0  0  0  0  0  0  0  0
    0.5215   -0.0172   -4.1685 N   0  0  0  0  0  0  0  0  0  0  0  0
    1.7115   -0.3194   -4.5563 O   0  0  0  0  0  0  0  0  0  0  0  0
    2.4213   -0.6186   -3.5057 N   0  0  0  0  0  0  0  0  0  0  0  0
    1.6771   -0.5107   -2.3895 C   0  0  0  0  0  0  0  0  0  0  0  0
    2.0405   -0.7398   -1.0318 N   0  0  0  0  0  0  0  0  0  0  0  0
    2.5593    0.2451   -0.1722 C   0  0  0  0  0  0  0  0  0  0  0  0
    2.7238    1.4157   -0.6051 O   0  0  0  0  0  0  0  0  0  0  0  0
    2.9262   -0.0058    1.2148 C   0  0  0  0  0  0  0  0  0  0  0  0
    3.4256    1.0513    1.9518 C   0  0  0  0  0  0  0  0  0  0  0  0
    3.7894    0.8490    3.2892 C   0  0  0  0  0  0  0  0  0  0  0  0
    3.6503   -0.4054    3.8736 C   0  0  0  0  0  0  0  0  0  0  0  0
    3.1517   -1.4658    3.1420 C   0  0  0  0  0  0  0  0  0  0  0  0
    2.9689   -3.0670    3.8714 Cl  0  0  0  0  0  0  0  0  0  0  0  0
    2.7973   -1.2400    1.8158 C   0  0  0  0  0  0  0  0  0  0  0  0
   -5.7166    2.6397    0.3257 H   0  0  0  0  0  0  0  0  0  0  0  0
   -5.3904    2.3164   -1.4296 H   0  0  0  0  0  0  0  0  0  0  0  0
   -4.2396    3.2454   -0.4303 H   0  0  0  0  0  0  0  0  0  0  0  0
   -3.1664    2.5821   -2.0367 H   0  0  0  0  0  0  0  0  0  0  0  0
   -1.1174    1.9613   -3.2133 H   0  0  0  0  0  0  0  0  0  0  0  0
   -0.6734   -1.5546   -0.7865 H   0  0  0  0  0  0  0  0  0  0  0  0
   -2.2001   -3.0357    0.3464 H   0  0  0  0  0  0  0  0  0  0  0  0
   -1.3130   -1.9819    1.4996 H   0  0  0  0  0  0  0  0  0  0  0  0
   -2.9227   -2.5847    1.9916 H   0  0  0  0  0  0  0  0  0  0  0  0
    1.9005   -1.7164   -0.6795 H   0  0  0  0  0  0  0  0  0  0  0  0
    3.5543    2.0517    1.5426 H   0  0  0  0  0  0  0  0  0  0  0  0
    4.1831    1.6610    3.8876 H   0  0  0  0  0  0  0  0  0  0  0  0
    3.9424   -0.5297    4.9160 H   0  0  0  0  0  0  0  0  0  0  0  0
    2.4130   -2.0709    1.2632 H   0  0  0  0  0  0  0  0  0  0  0  0
  1  2  1  0
  2  3  1  0
  3  4  2  0
  4  5  1  0
  5  6  2  0
  6  7  1  0
  7  8  2  0
  8  9  1  0
  9 10  1  0
  6 11  1  0
 11 12  2  0
 12 13  1  0
 13 14  1  0
 14 15  2  0
 15 16  1  0
 16 17  1  0
 17 18  2  0
 17 19  1  0
 19 20  2  0
 20 21  1  0
 21 22  2  0
 22 23  1  0
 23 24  1  0
 23 25  2  0
  8  3  1  0
 15 11  1  0
 25 19  1  0
  1 26  1  0
  1 27  1  0
  1 28  1  0
  4 29  1  0
  5 30  1  0
  7 31  1  0
 10 32  1  0
 10 33  1  0
 10 34  1  0
 16 35  1  0
 20 36  1  0
 21 37  1  0
 22 38  1  0
 25 39  1  0
M  END
>  <Batch_No>  (209) 
STK571742

>  <EC50_nM>  (209) 
ND

>  <Set>  (209) 
Drug-like

>  <Molecular_Weight>  (209) 
359.76376

>  <ALogP>  (209) 
3.536

$$$$
MMV665904
     RDKit          3D

 30 31  0  0  0  0  0  0  0  0999 V2000
   -4.3610    0.1268    0.4735 C   0  0  0  0  0  0  0  0  0  0  0  0
   -3.8057    0.3821   -0.7567 O   0  0  0  0  0  0  0  0  0  0  0  0
   -2.4380    0.5710   -0.7552 C   0  0  0  0  0  0  0  0  0  0  0  0
   -1.7523   -0.6468   -0.2430 C   0  0  0  0  0  0  0  0  0  0  0  0
   -0.2938   -0.5002   -0.2366 N   0  0  0  0  0  0  0  0  0  0  0  0
    0.4682   -0.8450   -1.2863 C   0  0  0  0  0  0  0  0  0  0  0  0
    1.8026   -0.6812   -1.2062 N   0  0  0  0  0  0  0  0  0  0  0  0
    2.4120   -0.1875   -0.1225 C   0  0  0  0  0  0  0  0  0  0  0  0
    3.7858   -0.0477   -0.1122 C   0  0  0  0  0  0  0  0  0  0  0  0
    4.4197    0.4633    1.0087 C   0  0  0  0  0  0  0  0  0  0  0  0
    3.6607    0.8282    2.1081 C   0  0  0  0  0  0  0  0  0  0  0  0
    2.2743    0.6816    2.0837 C   0  0  0  0  0  0  0  0  0  0  0  0
    1.6444    0.1725    0.9665 C   0  0  0  0  0  0  0  0  0  0  0  0
    0.2799    0.0045    0.8835 C   0  0  0  0  0  0  0  0  0  0  0  0
   -0.4087    0.3274    1.8605 O   0  0  0  0  0  0  0  0  0  0  0  0
   -0.1732   -1.3899   -2.4899 C   0  0  0  0  0  0  0  0  0  0  0  0
   -4.1653    0.9597    1.2039 H   0  0  0  0  0  0  0  0  0  0  0  0
   -5.4877    0.0769    0.3536 H   0  0  0  0  0  0  0  0  0  0  0  0
   -4.0794   -0.8467    0.9110 H   0  0  0  0  0  0  0  0  0  0  0  0
   -2.2172    1.4816   -0.1582 H   0  0  0  0  0  0  0  0  0  0  0  0
   -2.1654    0.8280   -1.8014 H   0  0  0  0  0  0  0  0  0  0  0  0
   -2.0847   -1.5238   -0.8252 H   0  0  0  0  0  0  0  0  0  0  0  0
   -2.0932   -0.8137    0.8138 H   0  0  0  0  0  0  0  0  0  0  0  0
    4.3409   -0.3511   -1.0074 H   0  0  0  0  0  0  0  0  0  0  0  0
    5.4919    0.5607    0.9877 H   0  0  0  0  0  0  0  0  0  0  0  0
    4.1677    1.2289    2.9847 H   0  0  0  0  0  0  0  0  0  0  0  0
    1.6824    0.9629    2.9331 H   0  0  0  0  0  0  0  0  0  0  0  0
    0.5916   -1.8106   -3.2023 H   0  0  0  0  0  0  0  0  0  0  0  0
   -0.8808   -2.2105   -2.3217 H   0  0  0  0  0  0  0  0  0  0  0  0
   -0.6159   -0.5158   -3.0475 H   0  0  0  0  0  0  0  0  0  0  0  0
  1  2  1  0
  2  3  1  0
  3  4  1  0
  4  5  1  0
  5  6  1  0
  6  7  2  0
  7  8  1  0
  8  9  2  0
  9 10  1  0
 10 11  2  0
 11 12  1  0
 12 13  2  0
 13 14  1  0
 14 15  2  0
  6 16  1  0
 14  5  1  0
 13  8  1  0
  1 17  1  0
  1 18  1  0
  1 19  1  0
  3 20  1  0
  3 21  1  0
  4 22  1  0
  4 23  1  0
  9 24  1  0
 10 25  1  0
 11 26  1  0
 12 27  1  0
 16 28  1  0
 16 29  1  0
 16 30  1  0
M  END
>  <Batch_No>  (210) 
OSSK_893617

>  <EC50_nM>  (210) 
ND

>  <Set>  (210) 
Drug-like

>  <Molecular_Weight>  (210) 
218.25176

>  <ALogP>  (210) 
0.904

$$$$
MMV396632
     RDKit          3D

 45 46  0  0  0  0  0  0  0  0999 V2000
   -3.4833   -0.7833   -0.2732 C   0  0  0  0  0  0  0  0  0  0  0  0
   -4.7732   -1.1077    0.0605 O   0  0  0  0  0  0  0  0  0  0  0  0
   -5.9145   -0.3343   -0.1480 C   0  0  0  0  0  0  0  0  0  0  0  0
   -5.8744    1.0012    0.5469 C   0  0  0  0  0  0  0  0  0  0  0  0
   -2.6193   -0.1005    0.5933 C   0  0  0  0  0  0  0  0  0  0  0  0
   -3.1498    0.2327    1.8255 O   0  0  0  0  0  0  0  0  0  0  0  0
   -2.4724    0.9033    2.8416 C   0  0  0  0  0  0  0  0  0  0  0  0
   -1.3410    0.1893    0.1908 C   0  0  0  0  0  0  0  0  0  0  0  0
   -0.8597   -0.1655   -1.0467 C   0  0  0  0  0  0  0  0  0  0  0  0
   -1.7377   -0.8432   -1.8893 C   0  0  0  0  0  0  0  0  0  0  0  0
   -3.0306   -1.1556   -1.5272 C   0  0  0  0  0  0  0  0  0  0  0  0
   -4.0797   -2.0175   -2.6612 Cl  0  0  0  0  0  0  0  0  0  0  0  0
    0.4868    0.1121   -1.5515 C   0  0  0  0  0  0  0  0  0  0  0  0
    1.4676   -0.8923   -1.2669 N   0  0  0  0  0  0  0  0  0  0  0  0
    1.8143   -1.0904    0.0944 C   0  0  0  0  0  0  0  0  0  0  0  0
    2.5979    0.0043    0.7450 C   0  0  0  0  0  0  0  0  0  0  0  0
    1.9514    1.2319    0.7469 O   0  0  0  0  0  0  0  0  0  0  0  0
    3.9830    0.1085    0.1725 C   0  0  0  0  0  0  0  0  0  0  0  0
    4.1907    0.7922   -1.0079 C   0  0  0  0  0  0  0  0  0  0  0  0
    5.4827    0.8819   -1.5255 C   0  0  0  0  0  0  0  0  0  0  0  0
    6.5039    0.2858   -0.8401 C   0  0  0  0  0  0  0  0  0  0  0  0
    6.2712   -0.3877    0.3331 C   0  0  0  0  0  0  0  0  0  0  0  0
    5.0115   -0.4939    0.8679 C   0  0  0  0  0  0  0  0  0  0  0  0
   -6.0923   -0.2298   -1.2387 H   0  0  0  0  0  0  0  0  0  0  0  0
   -6.8034   -0.8770    0.2788 H   0  0  0  0  0  0  0  0  0  0  0  0
   -4.9634    1.5827    0.2690 H   0  0  0  0  0  0  0  0  0  0  0  0
   -6.7938    1.5543    0.2617 H   0  0  0  0  0  0  0  0  0  0  0  0
   -5.8480    0.8391    1.6439 H   0  0  0  0  0  0  0  0  0  0  0  0
   -1.4995    0.4186    3.0211 H   0  0  0  0  0  0  0  0  0  0  0  0
   -3.0585    0.8501    3.7917 H   0  0  0  0  0  0  0  0  0  0  0  0
   -2.2552    1.9671    2.6069 H   0  0  0  0  0  0  0  0  0  0  0  0
   -0.7092    0.7148    0.8864 H   0  0  0  0  0  0  0  0  0  0  0  0
   -1.4132   -1.1546   -2.8871 H   0  0  0  0  0  0  0  0  0  0  0  0
    0.4417    0.1643   -2.6835 H   0  0  0  0  0  0  0  0  0  0  0  0
    0.8354    1.1492   -1.2769 H   0  0  0  0  0  0  0  0  0  0  0  0
    1.1281   -1.7968   -1.6658 H   0  0  0  0  0  0  0  0  0  0  0  0
    2.3423   -2.0459    0.2289 H   0  0  0  0  0  0  0  0  0  0  0  0
    0.8635   -1.1810    0.6762 H   0  0  0  0  0  0  0  0  0  0  0  0
    2.6676   -0.2802    1.8346 H   0  0  0  0  0  0  0  0  0  0  0  0
    2.1786    1.7611    1.5526 H   0  0  0  0  0  0  0  0  0  0  0  0
    3.4131    1.2591   -1.5515 H   0  0  0  0  0  0  0  0  0  0  0  0
    5.7072    1.3990   -2.4407 H   0  0  0  0  0  0  0  0  0  0  0  0
    7.5319    0.3370   -1.2202 H   0  0  0  0  0  0  0  0  0  0  0  0
    7.1090   -0.8427    0.8389 H   0  0  0  0  0  0  0  0  0  0  0  0
    4.7927   -1.0189    1.7927 H   0  0  0  0  0  0  0  0  0  0  0  0
  1  2  1  0
  2  3  1  0
  3  4  1  0
  1  5  2  0
  5  6  1  0
  6  7  1  0
  5  8  1  0
  8  9  2  0
  9 10  1  0
 10 11  2  0
 11 12  1  0
  9 13  1  0
 13 14  1  0
 14 15  1  0
 15 16  1  0
 16 17  1  0
 16 18  1  0
 18 19  2  0
 19 20  1  0
 20 21  2  0
 21 22  1  0
 22 23  2  0
 11  1  1  0
 23 18  1  0
  3 24  1  0
  3 25  1  0
  4 26  1  0
  4 27  1  0
  4 28  1  0
  7 29  1  0
  7 30  1  0
  7 31  1  0
  8 32  1  0
 10 33  1  0
 13 34  1  0
 13 35  1  0
 14 36  1  0
 15 37  1  0
 15 38  1  0
 16 39  1  0
 17 40  1  0
 19 41  1  0
 20 42  1  0
 21 43  1  0
 22 44  1  0
 23 45  1  0
M  END
>  <Batch_No>  (211) 
OSSK_617781

>  <EC50_nM>  (211) 
1050

>  <Set>  (211) 
Drug-like

>  <Molecular_Weight>  (211) 
335.82518

>  <ALogP>  (211) 
3.42

$$$$
MMV007875
     RDKit          3D

 36 38  0  0  0  0  0  0  0  0999 V2000
    5.2501   -2.1646    1.0001 C   0  0  0  0  0  0  0  0  0  0  0  0
    3.8408   -2.1993    0.8716 O   0  0  0  0  0  0  0  0  0  0  0  0
    3.1951   -1.0220    0.5299 C   0  0  0  0  0  0  0  0  0  0  0  0
    3.9452    0.1092    0.3345 C   0  0  0  0  0  0  0  0  0  0  0  0
    3.2725    1.2632   -0.0043 C   0  0  0  0  0  0  0  0  0  0  0  0
    1.8883    1.2727   -0.1409 C   0  0  0  0  0  0  0  0  0  0  0  0
    1.3417    2.4567   -0.4738 N   0  0  0  0  0  0  0  0  0  0  0  0
    0.0133    2.5327   -0.6203 C   0  0  0  0  0  0  0  0  0  0  0  0
   -0.5912    3.8263   -0.9848 C   0  0  0  0  0  0  0  0  0  0  0  0
   -0.7806    1.3999   -0.4292 C   0  0  0  0  0  0  0  0  0  0  0  0
   -0.2441    0.1764   -0.0872 C   0  0  0  0  0  0  0  0  0  0  0  0
   -1.0315   -0.9639    0.1264 N   0  0  0  0  0  0  0  0  0  0  0  0
   -2.4581   -0.9889    0.0914 C   0  0  0  0  0  0  0  0  0  0  0  0
   -3.2526   -0.0627    0.7241 C   0  0  0  0  0  0  0  0  0  0  0  0
   -4.6427   -0.1008    0.6533 C   0  0  0  0  0  0  0  0  0  0  0  0
   -5.2235   -1.1209   -0.0886 C   0  0  0  0  0  0  0  0  0  0  0  0
   -6.9711   -1.2367   -0.2258 Cl  0  0  0  0  0  0  0  0  0  0  0  0
   -4.4412   -2.0782   -0.7428 C   0  0  0  0  0  0  0  0  0  0  0  0
   -3.0631   -1.9926   -0.6391 C   0  0  0  0  0  0  0  0  0  0  0  0
    1.1266    0.1259    0.0571 C   0  0  0  0  0  0  0  0  0  0  0  0
    1.8146   -1.0146    0.3942 C   0  0  0  0  0  0  0  0  0  0  0  0
    5.5377   -1.5330    1.8867 H   0  0  0  0  0  0  0  0  0  0  0  0
    5.6657   -3.1871    1.1589 H   0  0  0  0  0  0  0  0  0  0  0  0
    5.7142   -1.7445    0.0830 H   0  0  0  0  0  0  0  0  0  0  0  0
    5.0181    0.1559    0.4275 H   0  0  0  0  0  0  0  0  0  0  0  0
    3.8607    2.1769   -0.1639 H   0  0  0  0  0  0  0  0  0  0  0  0
   -1.5055    3.6240   -1.5818 H   0  0  0  0  0  0  0  0  0  0  0  0
    0.1411    4.3880   -1.5984 H   0  0  0  0  0  0  0  0  0  0  0  0
   -0.7836    4.4480   -0.0843 H   0  0  0  0  0  0  0  0  0  0  0  0
   -1.8351    1.5488   -0.5822 H   0  0  0  0  0  0  0  0  0  0  0  0
   -0.5997   -1.9130    0.3321 H   0  0  0  0  0  0  0  0  0  0  0  0
   -2.8410    0.7344    1.3243 H   0  0  0  0  0  0  0  0  0  0  0  0
   -5.2616    0.6403    1.1593 H   0  0  0  0  0  0  0  0  0  0  0  0
   -4.9296   -2.8742   -1.3223 H   0  0  0  0  0  0  0  0  0  0  0  0
   -2.4786   -2.7535   -1.1602 H   0  0  0  0  0  0  0  0  0  0  0  0
    1.3086   -1.9288    0.5625 H   0  0  0  0  0  0  0  0  0  0  0  0
  1  2  1  0
  2  3  1  0
  3  4  2  0
  4  5  1  0
  5  6  2  0
  6  7  1  0
  7  8  2  0
  8  9  1  0
  8 10  1  0
 10 11  2  0
 11 12  1  0
 12 13  1  0
 13 14  2  0
 14 15  1  0
 15 16  2  0
 16 17  1  0
 16 18  1  0
 18 19  2  0
 11 20  1  0
 20 21  2  0
 21  3  1  0
 20  6  1  0
 19 13  1  0
  1 22  1  0
  1 23  1  0
  1 24  1  0
  4 25  1  0
  5 26  1  0
  9 27  1  0
  9 28  1  0
  9 29  1  0
 10 30  1  0
 12 31  1  0
 14 32  1  0
 15 33  1  0
 18 34  1  0
 19 35  1  0
 21 36  1  0
M  END
>  <Batch_No>  (212) 
0845-0947

>  <EC50_nM>  (212) 
2000

>  <Set>  (212) 
Drug-like

>  <Molecular_Weight>  (212) 
298.7668

>  <ALogP>  (212) 
4.497

$$$$
MMV006820
     RDKit          3D

 37 38  0  0  0  0  0  0  0  0999 V2000
   -4.9468    0.2092   -0.8960 C   0  0  0  0  0  0  0  0  0  0  0  0
   -4.4928   -0.1911    0.4709 C   0  0  0  0  0  0  0  0  0  0  0  0
   -3.0162    0.1766    0.6948 C   0  0  0  0  0  0  0  0  0  0  0  0
   -2.1820   -0.5309   -0.3168 C   0  0  0  0  0  0  0  0  0  0  0  0
   -0.7372   -0.2947   -0.2526 C   0  0  0  0  0  0  0  0  0  0  0  0
   -0.1019    0.8314   -0.7364 C   0  0  0  0  0  0  0  0  0  0  0  0
   -0.8930    1.8952   -1.3999 C   0  0  0  0  0  0  0  0  0  0  0  0
    1.2540    0.9546   -0.6090 N   0  0  0  0  0  0  0  0  0  0  0  0
    2.0268    0.0251   -0.0282 C   0  0  0  0  0  0  0  0  0  0  0  0
    3.3977    0.1944    0.0800 C   0  0  0  0  0  0  0  0  0  0  0  0
    4.0023    1.3383   -0.4174 O   0  0  0  0  0  0  0  0  0  0  0  0
    5.4032    1.4820   -0.2920 C   0  0  0  0  0  0  0  0  0  0  0  0
    4.1369   -0.7963    0.6897 C   0  0  0  0  0  0  0  0  0  0  0  0
    3.5637   -1.9453    1.1937 C   0  0  0  0  0  0  0  0  0  0  0  0
    2.1964   -2.0913    1.0740 C   0  0  0  0  0  0  0  0  0  0  0  0
    1.4364   -1.1143    0.4683 C   0  0  0  0  0  0  0  0  0  0  0  0
    0.0719   -1.2650    0.3538 C   0  0  0  0  0  0  0  0  0  0  0  0
   -0.4988   -2.4234    0.8630 O   0  0  0  0  0  0  0  0  0  0  0  0
   -4.2887    0.9995   -1.3418 H   0  0  0  0  0  0  0  0  0  0  0  0
   -5.9426    0.6941   -0.8206 H   0  0  0  0  0  0  0  0  0  0  0  0
   -5.0628   -0.6757   -1.5489 H   0  0  0  0  0  0  0  0  0  0  0  0
   -5.1404    0.2489    1.2535 H   0  0  0  0  0  0  0  0  0  0  0  0
   -4.5344   -1.2945    0.5889 H   0  0  0  0  0  0  0  0  0  0  0  0
   -3.0169    1.2794    0.6401 H   0  0  0  0  0  0  0  0  0  0  0  0
   -2.7236   -0.0590    1.7441 H   0  0  0  0  0  0  0  0  0  0  0  0
   -2.5770   -0.3161   -1.3332 H   0  0  0  0  0  0  0  0  0  0  0  0
   -2.3847   -1.6215   -0.1638 H   0  0  0  0  0  0  0  0  0  0  0  0
   -1.5495    2.4725   -0.7620 H   0  0  0  0  0  0  0  0  0  0  0  0
   -1.4133    1.4796   -2.2917 H   0  0  0  0  0  0  0  0  0  0  0  0
   -0.1463    2.6572   -1.7872 H   0  0  0  0  0  0  0  0  0  0  0  0
    5.9404    0.6715   -0.8636 H   0  0  0  0  0  0  0  0  0  0  0  0
    5.7473    2.4310   -0.7481 H   0  0  0  0  0  0  0  0  0  0  0  0
    5.7384    1.3991    0.7574 H   0  0  0  0  0  0  0  0  0  0  0  0
    5.2070   -0.6203    0.7520 H   0  0  0  0  0  0  0  0  0  0  0  0
    4.1903   -2.6815    1.6580 H   0  0  0  0  0  0  0  0  0  0  0  0
    1.7185   -2.9819    1.4604 H   0  0  0  0  0  0  0  0  0  0  0  0
   -0.3824   -2.5771    1.8666 H   0  0  0  0  0  0  0  0  0  0  0  0
  1  2  1  0
  2  3  1  0
  3  4  1  0
  4  5  1  0
  5  6  2  0
  6  7  1  0
  6  8  1  0
  8  9  2  0
  9 10  1  0
 10 11  1  0
 11 12  1  0
 10 13  2  0
 13 14  1  0
 14 15  2  0
 15 16  1  0
 16 17  2  0
 17 18  1  0
 17  5  1  0
 16  9  1  0
  1 19  1  0
  1 20  1  0
  1 21  1  0
  2 22  1  0
  2 23  1  0
  3 24  1  0
  3 25  1  0
  4 26  1  0
  4 27  1  0
  7 28  1  0
  7 29  1  0
  7 30  1  0
 12 31  1  0
 12 32  1  0
 12 33  1  0
 13 34  1  0
 14 35  1  0
 15 36  1  0
 18 37  1  0
M  END
>  <Batch_No>  (213) 
STK711594

>  <EC50_nM>  (213) 
4000

>  <Set>  (213) 
Drug-like

>  <Molecular_Weight>  (213) 
245.31686

>  <ALogP>  (213) 
3.895

$$$$
MMV396749
     RDKit          3D

 44 49  0  0  0  0  0  0  0  0999 V2000
   -0.2231    0.3954   -1.1302 C   0  0  0  0  0  0  0  0  0  0  0  0
   -0.4069    1.8134   -0.9950 N   0  0  0  0  0  0  0  0  0  0  0  0
   -1.2812    2.4374   -0.0755 C   0  0  0  0  0  0  0  0  0  0  0  0
   -1.3612    3.8128   -0.0437 C   0  0  0  0  0  0  0  0  0  0  0  0
   -2.2047    4.4590    0.8416 C   0  0  0  0  0  0  0  0  0  0  0  0
   -2.9534    3.6588    1.6820 C   0  0  0  0  0  0  0  0  0  0  0  0
   -2.8729    2.2796    1.6500 C   0  0  0  0  0  0  0  0  0  0  0  0
   -2.0334    1.6518    0.7683 C   0  0  0  0  0  0  0  0  0  0  0  0
   -1.8901    0.2047    0.6712 C   0  0  0  0  0  0  0  0  0  0  0  0
   -1.0456   -0.3483   -0.2185 N   0  0  0  0  0  0  0  0  0  0  0  0
   -1.1690   -1.6775   -0.0362 C   0  0  0  0  0  0  0  0  0  0  0  0
   -2.0979   -1.9261    0.9744 C   0  0  0  0  0  0  0  0  0  0  0  0
   -2.4298   -3.1971    1.3789 C   0  0  0  0  0  0  0  0  0  0  0  0
   -1.8449   -4.2833    0.7883 C   0  0  0  0  0  0  0  0  0  0  0  0
   -0.9206   -4.0871   -0.2153 C   0  0  0  0  0  0  0  0  0  0  0  0
   -0.6017   -2.8078   -0.6062 C   0  0  0  0  0  0  0  0  0  0  0  0
   -2.5222   -0.7418    1.3877 N   0  0  0  0  0  0  0  0  0  0  0  0
   -0.4716    0.0618   -2.5463 C   0  0  0  0  0  0  0  0  0  0  0  0
   -1.5734    0.1880   -3.1355 O   0  0  0  0  0  0  0  0  0  0  0  0
    0.7025   -0.4284   -3.1798 N   0  0  0  0  0  0  0  0  0  0  0  0
    1.7208   -0.4280   -2.1876 C   0  0  0  0  0  0  0  0  0  0  0  0
    3.0460   -0.8237   -2.3176 C   0  0  0  0  0  0  0  0  0  0  0  0
    3.8474   -0.7334   -1.1979 C   0  0  0  0  0  0  0  0  0  0  0  0
    3.3582   -0.2664    0.0169 C   0  0  0  0  0  0  0  0  0  0  0  0
    4.1648   -0.1758    1.1432 O   0  0  0  0  0  0  0  0  0  0  0  0
    3.7529    0.2792    2.3909 C   0  0  0  0  0  0  0  0  0  0  0  0
    2.0289    0.1275    0.1363 C   0  0  0  0  0  0  0  0  0  0  0  0
    1.2285    0.0362   -0.9863 C   0  0  0  0  0  0  0  0  0  0  0  0
    0.1520    2.4310   -1.6288 H   0  0  0  0  0  0  0  0  0  0  0  0
   -0.7585    4.4162   -0.7187 H   0  0  0  0  0  0  0  0  0  0  0  0
   -2.2613    5.5466    0.8594 H   0  0  0  0  0  0  0  0  0  0  0  0
   -3.6340    4.1219    2.3987 H   0  0  0  0  0  0  0  0  0  0  0  0
   -3.4581    1.6800    2.3059 H   0  0  0  0  0  0  0  0  0  0  0  0
   -3.1677   -3.3132    2.1787 H   0  0  0  0  0  0  0  0  0  0  0  0
   -2.1227   -5.2719    1.1243 H   0  0  0  0  0  0  0  0  0  0  0  0
   -0.4719   -4.9665   -0.6667 H   0  0  0  0  0  0  0  0  0  0  0  0
    0.1266   -2.7075   -1.3956 H   0  0  0  0  0  0  0  0  0  0  0  0
    0.7928   -0.7317   -4.1904 H   0  0  0  0  0  0  0  0  0  0  0  0
    3.4107   -1.1866   -3.2772 H   0  0  0  0  0  0  0  0  0  0  0  0
    4.8698   -1.0252   -1.2492 H   0  0  0  0  0  0  0  0  0  0  0  0
    3.6219    1.3758    2.4797 H   0  0  0  0  0  0  0  0  0  0  0  0
    2.7931   -0.2649    2.6169 H   0  0  0  0  0  0  0  0  0  0  0  0
    4.5299   -0.0800    3.1250 H   0  0  0  0  0  0  0  0  0  0  0  0
    1.6310    0.4950    1.0798 H   0  0  0  0  0  0  0  0  0  0  0  0
  1  2  1  0
  2  3  1  0
  3  4  2  0
  4  5  1  0
  5  6  2  0
  6  7  1  0
  3  8  1  0
  8  9  1  0
  9 10  1  0
 10 11  1  0
 11 12  2  0
 12 13  1  0
 13 14  2  0
 14 15  1  0
 15 16  2  0
 12 17  1  0
  1 18  1  0
 18 19  2  0
 18 20  1  0
 20 21  1  0
 21 22  1  0
 22 23  2  0
 23 24  1  0
 24 25  1  0
 25 26  1  0
 24 27  2  0
 21 28  2  0
 10  1  1  0
 28  1  1  0
  8  7  2  0
 17  9  2  0
 16 11  1  0
 28 27  1  0
  2 29  1  0
  4 30  1  0
  5 31  1  0
  6 32  1  0
  7 33  1  0
 13 34  1  0
 14 35  1  0
 15 36  1  0
 16 37  1  0
 20 38  1  0
 22 39  1  0
 23 40  1  0
 26 41  1  0
 26 42  1  0
 26 43  1  0
 27 44  1  0
M  END
>  <Batch_No>  (214) 
STL071339

>  <EC50_nM>  (214) 
928

>  <Set>  (214) 
Drug-like

>  <Molecular_Weight>  (214) 
368.38803

>  <ALogP>  (214) 
3.868

$$$$
MMV011576
     RDKit          3D

 60 64  0  0  0  0  0  0  0  0999 V2000
   -7.6351   -0.3050    1.6519 C   0  0  0  0  0  0  0  0  0  0  0  0
   -7.4224   -0.3659    0.1739 C   0  0  0  0  0  0  0  0  0  0  0  0
   -6.0823   -0.3921   -0.2152 O   0  0  0  0  0  0  0  0  0  0  0  0
   -5.1543    0.5813    0.0622 C   0  0  0  0  0  0  0  0  0  0  0  0
   -5.4974    1.5890    0.7139 O   0  0  0  0  0  0  0  0  0  0  0  0
   -3.7690    0.3764   -0.4383 C   0  0  0  0  0  0  0  0  0  0  0  0
   -3.7634    0.2604   -1.9396 C   0  0  0  0  0  0  0  0  0  0  0  0
   -2.4429    0.6940   -2.4868 C   0  0  0  0  0  0  0  0  0  0  0  0
   -1.3214    0.3896   -1.5747 N   0  0  0  0  0  0  0  0  0  0  0  0
   -1.4140    0.9770   -0.2698 C   0  0  0  0  0  0  0  0  0  0  0  0
   -2.8425    1.5148   -0.0862 C   0  0  0  0  0  0  0  0  0  0  0  0
   -0.3102   -0.4224   -2.0972 C   0  0  0  0  0  0  0  0  0  0  0  0
   -0.5356   -0.7804   -3.3411 O   0  0  0  0  0  0  0  0  0  0  0  0
    0.9195   -0.9380   -1.5448 C   0  0  0  0  0  0  0  0  0  0  0  0
    1.2938   -0.6473   -0.2053 N   0  0  0  0  0  0  0  0  0  0  0  0
    2.0878    0.4630    0.2783 C   0  0  0  0  0  0  0  0  0  0  0  0
    2.2190    0.2460    1.7221 C   0  0  0  0  0  0  0  0  0  0  0  0
    2.9040    1.0180    2.6596 C   0  0  0  0  0  0  0  0  0  0  0  0
    2.9317    0.6951    3.9997 C   0  0  0  0  0  0  0  0  0  0  0  0
    2.2546   -0.4343    4.4210 C   0  0  0  0  0  0  0  0  0  0  0  0
    1.5737   -1.2005    3.4838 C   0  0  0  0  0  0  0  0  0  0  0  0
    1.5441   -0.8802    2.1409 C   0  0  0  0  0  0  0  0  0  0  0  0
    0.9523   -1.4585    0.9409 C   0  0  0  0  0  0  0  0  0  0  0  0
    0.2449   -2.5180    0.9240 O   0  0  0  0  0  0  0  0  0  0  0  0
    3.3904    0.5984   -0.4351 C   0  0  0  0  0  0  0  0  0  0  0  0
    3.9251    1.7644   -1.0023 C   0  0  0  0  0  0  0  0  0  0  0  0
    5.1180    1.4883   -1.5540 N   0  0  0  0  0  0  0  0  0  0  0  0
    5.4131    0.1893   -1.3852 C   0  0  0  0  0  0  0  0  0  0  0  0
    6.5118   -0.5824   -1.7659 C   0  0  0  0  0  0  0  0  0  0  0  0
    6.5321   -1.9234   -1.4447 C   0  0  0  0  0  0  0  0  0  0  0  0
    5.4875   -2.5048   -0.7574 C   0  0  0  0  0  0  0  0  0  0  0  0
    4.4187   -1.7034   -0.3995 C   0  0  0  0  0  0  0  0  0  0  0  0
    4.3449   -0.3621   -0.6931 C   0  0  0  0  0  0  0  0  0  0  0  0
   -7.6634    0.7392    2.0396 H   0  0  0  0  0  0  0  0  0  0  0  0
   -8.6474   -0.7384    1.8564 H   0  0  0  0  0  0  0  0  0  0  0  0
   -6.9340   -0.9430    2.2257 H   0  0  0  0  0  0  0  0  0  0  0  0
   -7.9689    0.5127   -0.2781 H   0  0  0  0  0  0  0  0  0  0  0  0
   -7.9466   -1.2614   -0.2490 H   0  0  0  0  0  0  0  0  0  0  0  0
   -3.3010   -0.5385   -0.0047 H   0  0  0  0  0  0  0  0  0  0  0  0
   -4.0787   -0.7414   -2.2942 H   0  0  0  0  0  0  0  0  0  0  0  0
   -4.5154    1.0155   -2.3034 H   0  0  0  0  0  0  0  0  0  0  0  0
   -2.3715    1.7911   -2.6825 H   0  0  0  0  0  0  0  0  0  0  0  0
   -2.2928    0.1642   -3.4378 H   0  0  0  0  0  0  0  0  0  0  0  0
   -0.7196    1.8685   -0.2827 H   0  0  0  0  0  0  0  0  0  0  0  0
   -1.1583    0.3195    0.5697 H   0  0  0  0  0  0  0  0  0  0  0  0
   -2.9734    2.3179   -0.8179 H   0  0  0  0  0  0  0  0  0  0  0  0
   -3.0005    1.8659    0.9549 H   0  0  0  0  0  0  0  0  0  0  0  0
    1.7972   -0.5769   -2.1835 H   0  0  0  0  0  0  0  0  0  0  0  0
    0.9866   -2.0745   -1.6334 H   0  0  0  0  0  0  0  0  0  0  0  0
    1.5563    1.4193    0.1200 H   0  0  0  0  0  0  0  0  0  0  0  0
    3.4522    1.9200    2.3647 H   0  0  0  0  0  0  0  0  0  0  0  0
    3.4818    1.3289    4.7028 H   0  0  0  0  0  0  0  0  0  0  0  0
    2.2831   -0.6769    5.4715 H   0  0  0  0  0  0  0  0  0  0  0  0
    1.0466   -2.0803    3.8133 H   0  0  0  0  0  0  0  0  0  0  0  0
    3.4689    2.7481   -1.0094 H   0  0  0  0  0  0  0  0  0  0  0  0
    5.7702    2.1393   -2.0545 H   0  0  0  0  0  0  0  0  0  0  0  0
    7.3163   -0.1100   -2.3014 H   0  0  0  0  0  0  0  0  0  0  0  0
    7.4042   -2.5219   -1.7505 H   0  0  0  0  0  0  0  0  0  0  0  0
    5.5132   -3.5630   -0.5093 H   0  0  0  0  0  0  0  0  0  0  0  0
    3.6182   -2.1872    0.1374 H   0  0  0  0  0  0  0  0  0  0  0  0
  1  2  1  0
  2  3  1  0
  3  4  1  0
  4  5  2  0
  4  6  1  0
  6  7  1  0
  7  8  1  0
  8  9  1  0
  9 10  1  0
 10 11  1  0
  9 12  1  0
 12 13  2  0
 12 14  1  0
 14 15  1  0
 15 16  1  0
 16 17  1  0
 17 18  2  0
 18 19  1  0
 19 20  2  0
 20 21  1  0
 21 22  2  0
 22 23  1  0
 23 24  2  0
 16 25  1  0
 25 26  2  0
 26 27  1  0
 27 28  1  0
 28 29  2  0
 29 30  1  0
 30 31  2  0
 31 32  1  0
 32 33  2  0
 11  6  1  0
 23 15  1  0
 22 17  1  0
 33 25  1  0
 33 28  1  0
  1 34  1  0
  1 35  1  0
  1 36  1  0
  2 37  1  0
  2 38  1  0
  6 39  1  0
  7 40  1  0
  7 41  1  0
  8 42  1  0
  8 43  1  0
 10 44  1  0
 10 45  1  0
 11 46  1  0
 11 47  1  0
 14 48  1  0
 14 49  1  0
 16 50  1  0
 18 51  1  0
 19 52  1  0
 20 53  1  0
 21 54  1  0
 26 55  1  0
 27 56  1  0
 29 57  1  0
 30 58  1  0
 31 59  1  0
 32 60  1  0
M  END
>  <Batch_No>  (215) 
STK229733

>  <EC50_nM>  (215) 
1175

>  <Set>  (215) 
Drug-like

>  <Molecular_Weight>  (215) 
445.51028

>  <ALogP>  (215) 
2.845

$$$$
MMV020651
     RDKit          3D

 49 52  0  0  0  0  0  0  0  0999 V2000
   10.3296    0.2969   -0.2218 Cl  0  0  0  0  0  0  0  0  0  0  0  0
    8.7226    0.8771    0.1115 C   0  0  0  0  0  0  0  0  0  0  0  0
    8.4629    2.0917    0.7217 C   0  0  0  0  0  0  0  0  0  0  0  0
    7.1576    2.4987    0.9606 C   0  0  0  0  0  0  0  0  0  0  0  0
    6.0992    1.6753    0.5817 C   0  0  0  0  0  0  0  0  0  0  0  0
    4.4872    2.2372    0.9061 Cl  0  0  0  0  0  0  0  0  0  0  0  0
    6.3564    0.4639   -0.0269 C   0  0  0  0  0  0  0  0  0  0  0  0
    7.6586    0.0818   -0.2532 C   0  0  0  0  0  0  0  0  0  0  0  0
    5.2525   -0.4018   -0.4254 C   0  0  0  0  0  0  0  0  0  0  0  0
    3.9766   -0.1447   -0.2619 O   0  0  0  0  0  0  0  0  0  0  0  0
    3.2433   -1.1308   -0.7307 C   0  0  0  0  0  0  0  0  0  0  0  0
    4.0948   -2.1020   -1.2367 C   0  0  0  0  0  0  0  0  0  0  0  0
    5.3766   -1.6313   -1.0391 C   0  0  0  0  0  0  0  0  0  0  0  0
    1.7944   -1.2696   -0.7587 C   0  0  0  0  0  0  0  0  0  0  0  0
    1.2010   -2.2715   -1.2392 O   0  0  0  0  0  0  0  0  0  0  0  0
    0.9470   -0.2424   -0.2252 N   0  0  0  0  0  0  0  0  0  0  0  0
   -0.4659   -0.5120   -0.3192 C   0  0  0  0  0  0  0  0  0  0  0  0
   -1.2036   -0.1217   -1.4253 C   0  0  0  0  0  0  0  0  0  0  0  0
   -2.5703   -0.4071   -1.4672 C   0  0  0  0  0  0  0  0  0  0  0  0
   -3.2028   -1.0687   -0.4329 C   0  0  0  0  0  0  0  0  0  0  0  0
   -4.6636   -1.3525   -0.5200 C   0  0  0  0  0  0  0  0  0  0  0  0
   -5.3875   -0.2624    0.0453 N   0  0  0  0  0  0  0  0  0  0  0  0
   -6.8188   -0.4097    0.0246 C   0  0  0  0  0  0  0  0  0  0  0  0
   -7.3787    0.4871    1.1102 C   0  0  0  0  0  0  0  0  0  0  0  0
   -6.4708    1.4758    1.4692 O   0  0  0  0  0  0  0  0  0  0  0  0
   -5.8678    2.0464    0.3278 C   0  0  0  0  0  0  0  0  0  0  0  0
   -4.9696    1.0400   -0.3739 C   0  0  0  0  0  0  0  0  0  0  0  0
   -2.4361   -1.4424    0.6530 C   0  0  0  0  0  0  0  0  0  0  0  0
   -1.0819   -1.1639    0.7032 C   0  0  0  0  0  0  0  0  0  0  0  0
    9.3191    2.7085    1.0038 H   0  0  0  0  0  0  0  0  0  0  0  0
    7.0195    3.4512    1.4373 H   0  0  0  0  0  0  0  0  0  0  0  0
    7.8232   -0.8700   -0.7303 H   0  0  0  0  0  0  0  0  0  0  0  0
    3.8784   -3.0379   -1.6950 H   0  0  0  0  0  0  0  0  0  0  0  0
    6.2989   -2.1543   -1.3246 H   0  0  0  0  0  0  0  0  0  0  0  0
    1.3285    0.6189    0.1915 H   0  0  0  0  0  0  0  0  0  0  0  0
   -0.7011    0.3949   -2.2291 H   0  0  0  0  0  0  0  0  0  0  0  0
   -3.1239   -0.0922   -2.3410 H   0  0  0  0  0  0  0  0  0  0  0  0
   -4.9377   -1.6266   -1.5506 H   0  0  0  0  0  0  0  0  0  0  0  0
   -4.8184   -2.2509    0.1466 H   0  0  0  0  0  0  0  0  0  0  0  0
   -7.0756   -1.4762    0.1873 H   0  0  0  0  0  0  0  0  0  0  0  0
   -7.2846   -0.0820   -0.9242 H   0  0  0  0  0  0  0  0  0  0  0  0
   -7.5564   -0.1237    2.0316 H   0  0  0  0  0  0  0  0  0  0  0  0
   -8.3308    0.9650    0.8136 H   0  0  0  0  0  0  0  0  0  0  0  0
   -6.7191    2.3706   -0.3113 H   0  0  0  0  0  0  0  0  0  0  0  0
   -5.2896    2.9219    0.6884 H   0  0  0  0  0  0  0  0  0  0  0  0
   -5.0325    1.1675   -1.4902 H   0  0  0  0  0  0  0  0  0  0  0  0
   -3.9332    1.2451   -0.0243 H   0  0  0  0  0  0  0  0  0  0  0  0
   -2.9446   -1.9690    1.4740 H   0  0  0  0  0  0  0  0  0  0  0  0
   -0.5631   -1.4978    1.5991 H   0  0  0  0  0  0  0  0  0  0  0  0
  1  2  1  0
  2  3  2  0
  3  4  1  0
  4  5  2  0
  5  6  1  0
  5  7  1  0
  7  8  2  0
  7  9  1  0
  9 10  1  0
 10 11  1  0
 11 12  2  0
 12 13  1  0
 11 14  1  0
 14 15  2  0
 14 16  1  0
 16 17  1  0
 17 18  2  0
 18 19  1  0
 19 20  2  0
 20 21  1  0
 21 22  1  0
 22 23  1  0
 23 24  1  0
 24 25  1  0
 25 26  1  0
 26 27  1  0
 20 28  1  0
 28 29  2  0
  8  2  1  0
 13  9  2  0
 29 17  1  0
 27 22  1  0
  3 30  1  0
  4 31  1  0
  8 32  1  0
 12 33  1  0
 13 34  1  0
 16 35  1  0
 18 36  1  0
 19 37  1  0
 21 38  1  0
 21 39  1  0
 23 40  1  0
 23 41  1  0
 24 42  1  0
 24 43  1  0
 26 44  1  0
 26 45  1  0
 27 46  1  0
 27 47  1  0
 28 48  1  0
 29 49  1  0
M  END
>  <Batch_No>  (216) 
STK105153

>  <EC50_nM>  (216) 
1945

>  <Set>  (216) 
Drug-like

>  <Molecular_Weight>  (216) 
431.31179

>  <ALogP>  (216) 
4.909

$$$$
MMV000483
     RDKit          3D

 52 54  0  0  0  0  0  0  0  0999 V2000
   -5.3454   -1.7778    0.9148 C   0  0  0  0  0  0  0  0  0  0  0  0
   -4.9056   -2.0128   -0.4955 C   0  0  0  0  0  0  0  0  0  0  0  0
   -3.9955   -1.0190   -0.8711 O   0  0  0  0  0  0  0  0  0  0  0  0
   -2.8062   -0.8764   -0.1993 C   0  0  0  0  0  0  0  0  0  0  0  0
   -2.3850   -1.6543    0.8522 C   0  0  0  0  0  0  0  0  0  0  0  0
   -1.1746   -1.4623    1.4920 C   0  0  0  0  0  0  0  0  0  0  0  0
   -0.7854   -2.3476    2.6269 C   0  0  0  0  0  0  0  0  0  0  0  0
    0.4606   -1.8301    3.2887 C   0  0  0  0  0  0  0  0  0  0  0  0
    1.4302   -1.2907    2.3603 N   0  0  0  0  0  0  0  0  0  0  0  0
    0.9640   -0.1395    1.6569 C   0  0  0  0  0  0  0  0  0  0  0  0
    1.9608    0.3064    0.6761 C   0  0  0  0  0  0  0  0  0  0  0  0
    2.2673    1.6651    0.5786 C   0  0  0  0  0  0  0  0  0  0  0  0
    3.2033    2.0977   -0.3412 C   0  0  0  0  0  0  0  0  0  0  0  0
    3.5534    3.5514   -0.4691 C   0  0  0  0  0  0  0  0  0  0  0  0
    3.8402    1.1873   -1.1685 C   0  0  0  0  0  0  0  0  0  0  0  0
    4.7959    1.6079   -2.1111 O   0  0  0  0  0  0  0  0  0  0  0  0
    3.5146   -0.1556   -1.0481 C   0  0  0  0  0  0  0  0  0  0  0  0
    4.2216   -1.0970   -1.9554 C   0  0  0  0  0  0  0  0  0  0  0  0
    2.5840   -0.6147   -0.1386 C   0  0  0  0  0  0  0  0  0  0  0  0
   -0.3635   -0.4394    1.0426 C   0  0  0  0  0  0  0  0  0  0  0  0
   -0.7371    0.3829   -0.0205 C   0  0  0  0  0  0  0  0  0  0  0  0
   -1.9603    0.1521   -0.6306 C   0  0  0  0  0  0  0  0  0  0  0  0
   -2.3531    0.9686   -1.7012 O   0  0  0  0  0  0  0  0  0  0  0  0
   -1.4472    1.9846   -2.0792 C   0  0  0  0  0  0  0  0  0  0  0  0
   -1.9528    2.8013   -3.2276 C   0  0  0  0  0  0  0  0  0  0  0  0
   -4.8224   -0.9546    1.4387 H   0  0  0  0  0  0  0  0  0  0  0  0
   -6.4244   -1.4344    0.8481 H   0  0  0  0  0  0  0  0  0  0  0  0
   -5.3431   -2.7352    1.4829 H   0  0  0  0  0  0  0  0  0  0  0  0
   -5.7589   -2.0023   -1.2293 H   0  0  0  0  0  0  0  0  0  0  0  0
   -4.4639   -3.0443   -0.5848 H   0  0  0  0  0  0  0  0  0  0  0  0
   -2.9979   -2.4587    1.2126 H   0  0  0  0  0  0  0  0  0  0  0  0
   -1.5832   -2.4116    3.4001 H   0  0  0  0  0  0  0  0  0  0  0  0
   -0.6316   -3.3820    2.2373 H   0  0  0  0  0  0  0  0  0  0  0  0
    0.2376   -1.1094    4.1175 H   0  0  0  0  0  0  0  0  0  0  0  0
    0.9616   -2.6971    3.7831 H   0  0  0  0  0  0  0  0  0  0  0  0
    1.7798   -2.0594    1.7820 H   0  0  0  0  0  0  0  0  0  0  0  0
    0.7376    0.6487    2.4235 H   0  0  0  0  0  0  0  0  0  0  0  0
    1.7643    2.3437    1.2254 H   0  0  0  0  0  0  0  0  0  0  0  0
    3.6857    3.7499   -1.5354 H   0  0  0  0  0  0  0  0  0  0  0  0
    2.7376    4.1416    0.0107 H   0  0  0  0  0  0  0  0  0  0  0  0
    4.4603    3.7267    0.1366 H   0  0  0  0  0  0  0  0  0  0  0  0
    5.5670    0.9720   -2.3566 H   0  0  0  0  0  0  0  0  0  0  0  0
    5.2091   -1.3467   -1.4749 H   0  0  0  0  0  0  0  0  0  0  0  0
    3.7082   -2.0638   -2.0740 H   0  0  0  0  0  0  0  0  0  0  0  0
    4.3920   -0.6839   -2.9647 H   0  0  0  0  0  0  0  0  0  0  0  0
    2.3977   -1.6718   -0.1185 H   0  0  0  0  0  0  0  0  0  0  0  0
   -0.0790    1.1836   -0.3567 H   0  0  0  0  0  0  0  0  0  0  0  0
   -0.4361    1.5754   -2.3277 H   0  0  0  0  0  0  0  0  0  0  0  0
   -1.3283    2.6634   -1.2035 H   0  0  0  0  0  0  0  0  0  0  0  0
   -2.5970    3.6046   -2.8128 H   0  0  0  0  0  0  0  0  0  0  0  0
   -2.6087    2.1674   -3.8627 H   0  0  0  0  0  0  0  0  0  0  0  0
   -1.1486    3.2900   -3.7949 H   0  0  0  0  0  0  0  0  0  0  0  0
  1  2  1  0
  2  3  1  0
  3  4  1  0
  4  5  2  0
  5  6  1  0
  6  7  1  0
  7  8  1  0
  8  9  1  0
  9 10  1  0
 10 11  1  0
 11 12  2  0
 12 13  1  0
 13 14  1  0
 13 15  2  0
 15 16  1  0
 15 17  1  0
 17 18  1  0
 17 19  2  0
 10 20  1  0
 20 21  1  0
 21 22  2  0
 22 23  1  0
 23 24  1  0
 24 25  1  0
 22  4  1  0
 20  6  2  0
 19 11  1  0
  1 26  1  0
  1 27  1  0
  1 28  1  0
  2 29  1  0
  2 30  1  0
  5 31  1  0
  7 32  1  0
  7 33  1  0
  8 34  1  0
  8 35  1  0
  9 36  1  0
 10 37  1  0
 12 38  1  0
 14 39  1  0
 14 40  1  0
 14 41  1  0
 16 42  1  0
 18 43  1  0
 18 44  1  0
 18 45  1  0
 19 46  1  0
 21 47  1  0
 24 48  1  0
 24 49  1  0
 25 50  1  0
 25 51  1  0
 25 52  1  0
M  END
>  <Batch_No>  (217) 
STK678441

>  <EC50_nM>  (217) 
683

>  <Set>  (217) 
Drug-like

>  <Molecular_Weight>  (217) 
341.44397

>  <ALogP>  (217) 
4.449

$$$$
MMV019266
     RDKit          3D

 33 36  0  0  0  0  0  0  0  0999 V2000
   -4.4750    2.1400    0.1801 C   0  0  0  0  0  0  0  0  0  0  0  0
   -3.8412    0.8391    0.5074 C   0  0  0  0  0  0  0  0  0  0  0  0
   -4.3299   -0.2817    1.8305 S   0  0  0  0  0  0  0  0  0  0  0  0
   -3.0571   -1.4877    1.4419 C   0  0  0  0  0  0  0  0  0  0  0  0
   -2.7966   -2.6507    2.0314 N   0  0  0  0  0  0  0  0  0  0  0  0
   -1.7939   -3.4322    1.5895 C   0  0  0  0  0  0  0  0  0  0  0  0
   -1.0911   -2.9800    0.5469 N   0  0  0  0  0  0  0  0  0  0  0  0
   -1.3216   -1.8149   -0.0738 C   0  0  0  0  0  0  0  0  0  0  0  0
   -0.2830   -1.4020   -1.4523 S   0  0  0  0  0  0  0  0  0  0  0  0
    1.1882   -0.5770   -0.8887 C   0  0  0  0  0  0  0  0  0  0  0  0
    1.4483    0.7178   -0.6761 N   0  0  0  0  0  0  0  0  0  0  0  0
    2.7322    0.8524   -0.2513 C   0  0  0  0  0  0  0  0  0  0  0  0
    3.5159    1.9481    0.1052 C   0  0  0  0  0  0  0  0  0  0  0  0
    4.8399    1.7445    0.5048 C   0  0  0  0  0  0  0  0  0  0  0  0
    5.3630    0.4518    0.5432 C   0  0  0  0  0  0  0  0  0  0  0  0
    4.5893   -0.6510    0.1893 C   0  0  0  0  0  0  0  0  0  0  0  0
    3.2887   -0.4000   -0.1977 C   0  0  0  0  0  0  0  0  0  0  0  0
    2.3295   -1.2652   -0.5913 N   0  0  0  0  0  0  0  0  0  0  0  0
   -2.3698   -0.9649    0.3625 C   0  0  0  0  0  0  0  0  0  0  0  0
   -2.7473    0.2044   -0.1245 C   0  0  0  0  0  0  0  0  0  0  0  0
   -2.1110    0.9014   -1.3059 C   0  0  0  0  0  0  0  0  0  0  0  0
   -5.1337    2.3770    1.0521 H   0  0  0  0  0  0  0  0  0  0  0  0
   -5.0710    2.0881   -0.7614 H   0  0  0  0  0  0  0  0  0  0  0  0
   -3.6702    2.8916    0.1129 H   0  0  0  0  0  0  0  0  0  0  0  0
   -1.5668   -4.3773    2.0499 H   0  0  0  0  0  0  0  0  0  0  0  0
    3.0745    2.9245    0.0612 H   0  0  0  0  0  0  0  0  0  0  0  0
    5.4574    2.5939    0.7828 H   0  0  0  0  0  0  0  0  0  0  0  0
    6.3865    0.2552    0.8466 H   0  0  0  0  0  0  0  0  0  0  0  0
    4.9973   -1.6639    0.2186 H   0  0  0  0  0  0  0  0  0  0  0  0
    2.4687   -2.3084   -0.6504 H   0  0  0  0  0  0  0  0  0  0  0  0
   -1.1910    1.4017   -1.0312 H   0  0  0  0  0  0  0  0  0  0  0  0
   -2.7926    1.7104   -1.6836 H   0  0  0  0  0  0  0  0  0  0  0  0
   -2.0364    0.2150   -2.1870 H   0  0  0  0  0  0  0  0  0  0  0  0
  1  2  1  0
  2  3  1  0
  3  4  1  0
  4  5  2  0
  5  6  1  0
  6  7  2  0
  7  8  1  0
  8  9  1  0
  9 10  1  0
 10 11  2  0
 11 12  1  0
 12 13  2  0
 13 14  1  0
 14 15  2  0
 15 16  1  0
 16 17  2  0
 17 18  1  0
  8 19  2  0
 19 20  1  0
 20 21  1  0
 20  2  2  0
 19  4  1  0
 18 10  1  0
 17 12  1  0
  1 22  1  0
  1 23  1  0
  1 24  1  0
  6 25  1  0
 13 26  1  0
 14 27  1  0
 15 28  1  0
 16 29  1  0
 18 30  1  0
 21 31  1  0
 21 32  1  0
 21 33  1  0
M  END
>  <Batch_No>  (218) 
STK845176

>  <EC50_nM>  (218) 
614.5

>  <Set>  (218) 
Drug-like

>  <Molecular_Weight>  (218) 
312.41258

>  <ALogP>  (218) 
4.458

$$$$
MMV001049
     RDKit          3D

 43 44  0  0  0  0  0  0  0  0999 V2000
    6.2051    0.2843    0.5909 C   0  0  0  0  0  0  0  0  0  0  0  0
    5.4098   -0.5999   -0.3684 C   0  0  0  0  0  0  0  0  0  0  0  0
    5.7836   -0.2037   -1.7625 C   0  0  0  0  0  0  0  0  0  0  0  0
    3.9647   -0.2915   -0.1026 C   0  0  0  0  0  0  0  0  0  0  0  0
    3.0873   -1.2586    0.3655 C   0  0  0  0  0  0  0  0  0  0  0  0
    1.7717   -0.9176    0.5897 C   0  0  0  0  0  0  0  0  0  0  0  0
    1.3187    0.3705    0.3545 C   0  0  0  0  0  0  0  0  0  0  0  0
   -0.1158    0.7060    0.6106 C   0  0  0  0  0  0  0  0  0  0  0  0
   -0.8280    0.4372   -0.6194 N   0  0  0  0  0  0  0  0  0  0  0  0
   -2.2387    0.7131   -0.5427 C   0  0  0  0  0  0  0  0  0  0  0  0
   -2.9732   -0.2286    0.3671 C   0  0  0  0  0  0  0  0  0  0  0  0
   -2.8698   -1.5497   -0.0292 O   0  0  0  0  0  0  0  0  0  0  0  0
   -4.4180    0.1099    0.3516 C   0  0  0  0  0  0  0  0  0  0  0  0
   -5.1812   -0.2872   -0.7517 C   0  0  0  0  0  0  0  0  0  0  0  0
   -6.5348    0.0204   -0.7814 C   0  0  0  0  0  0  0  0  0  0  0  0
   -7.0891    0.7099    0.2802 C   0  0  0  0  0  0  0  0  0  0  0  0
   -6.3769    1.1154    1.3764 C   0  0  0  0  0  0  0  0  0  0  0  0
   -5.0239    0.8077    1.4049 C   0  0  0  0  0  0  0  0  0  0  0  0
    2.2184    1.3251   -0.1156 C   0  0  0  0  0  0  0  0  0  0  0  0
    3.5388    1.0013   -0.3455 C   0  0  0  0  0  0  0  0  0  0  0  0
    7.2094    0.4532    0.1648 H   0  0  0  0  0  0  0  0  0  0  0  0
    6.2751   -0.2579    1.5639 H   0  0  0  0  0  0  0  0  0  0  0  0
    5.6502    1.2450    0.6838 H   0  0  0  0  0  0  0  0  0  0  0  0
    5.6454   -1.6509   -0.1842 H   0  0  0  0  0  0  0  0  0  0  0  0
    5.0722   -0.5391   -2.5411 H   0  0  0  0  0  0  0  0  0  0  0  0
    5.9934    0.9037   -1.8342 H   0  0  0  0  0  0  0  0  0  0  0  0
    6.7569   -0.6949   -2.0096 H   0  0  0  0  0  0  0  0  0  0  0  0
    3.4326   -2.2704    0.5523 H   0  0  0  0  0  0  0  0  0  0  0  0
    1.0706   -1.6666    0.9580 H   0  0  0  0  0  0  0  0  0  0  0  0
   -0.4382    0.0774    1.4429 H   0  0  0  0  0  0  0  0  0  0  0  0
   -0.1551    1.7979    0.7970 H   0  0  0  0  0  0  0  0  0  0  0  0
   -0.3775    0.9276   -1.4168 H   0  0  0  0  0  0  0  0  0  0  0  0
   -2.3799    1.7470   -0.2277 H   0  0  0  0  0  0  0  0  0  0  0  0
   -2.6346    0.5736   -1.5708 H   0  0  0  0  0  0  0  0  0  0  0  0
   -2.6335   -0.0764    1.4325 H   0  0  0  0  0  0  0  0  0  0  0  0
   -2.9334   -2.1167    0.8024 H   0  0  0  0  0  0  0  0  0  0  0  0
   -4.7595   -0.8262   -1.5841 H   0  0  0  0  0  0  0  0  0  0  0  0
   -7.1709   -0.2717   -1.6276 H   0  0  0  0  0  0  0  0  0  0  0  0
   -8.1568    0.9537    0.2606 H   0  0  0  0  0  0  0  0  0  0  0  0
   -6.8102    1.6604    2.2171 H   0  0  0  0  0  0  0  0  0  0  0  0
   -4.4260    1.1178    2.2663 H   0  0  0  0  0  0  0  0  0  0  0  0
    1.8864    2.3462   -0.3075 H   0  0  0  0  0  0  0  0  0  0  0  0
    4.2349    1.7449   -0.7102 H   0  0  0  0  0  0  0  0  0  0  0  0
  1  2  1  0
  2  3  1  0
  2  4  1  0
  4  5  2  0
  5  6  1  0
  6  7  2  0
  7  8  1  0
  8  9  1  0
  9 10  1  0
 10 11  1  0
 11 12  1  0
 11 13  1  0
 13 14  2  0
 14 15  1  0
 15 16  2  0
 16 17  1  0
 17 18  2  0
  7 19  1  0
 19 20  2  0
 20  4  1  0
 18 13  1  0
  1 21  1  0
  1 22  1  0
  1 23  1  0
  2 24  1  0
  3 25  1  0
  3 26  1  0
  3 27  1  0
  5 28  1  0
  6 29  1  0
  8 30  1  0
  8 31  1  0
  9 32  1  0
 10 33  1  0
 10 34  1  0
 11 35  1  0
 12 36  1  0
 14 37  1  0
 15 38  1  0
 16 39  1  0
 17 40  1  0
 18 41  1  0
 19 42  1  0
 20 43  1  0
M  END
>  <Batch_No>  (219) 
STK289731

>  <EC50_nM>  (219) 
1260

>  <Set>  (219) 
Drug-like

>  <Molecular_Weight>  (219) 
269.38132

>  <ALogP>  (219) 
3.634

$$$$
MMV665806
     RDKit          3D

 53 55  0  0  0  0  0  0  0  0999 V2000
   -3.4920   -2.4926   -0.2331 C   0  0  0  0  0  0  0  0  0  0  0  0
   -3.5381   -0.9908   -0.4283 C   0  0  0  0  0  0  0  0  0  0  0  0
   -4.9425   -0.5771   -0.1336 C   0  0  0  0  0  0  0  0  0  0  0  0
   -5.1477    0.7833    0.4076 C   0  0  0  0  0  0  0  0  0  0  0  0
   -4.1461    1.2492    1.4156 C   0  0  0  0  0  0  0  0  0  0  0  0
   -2.7701    1.0954    0.7292 C   0  0  0  0  0  0  0  0  0  0  0  0
   -2.5850   -0.3871    0.5692 C   0  0  0  0  0  0  0  0  0  0  0  0
   -1.2468   -0.7631    0.4924 N   0  0  0  0  0  0  0  0  0  0  0  0
   -0.4825   -0.6516   -0.6648 C   0  0  0  0  0  0  0  0  0  0  0  0
   -0.1099    0.7040   -1.1753 C   0  0  0  0  0  0  0  0  0  0  0  0
    0.6305    0.4288   -2.3778 O   0  0  0  0  0  0  0  0  0  0  0  0
    0.7830    1.4631   -0.2366 C   0  0  0  0  0  0  0  0  0  0  0  0
    2.0438    0.8142    0.0282 N   0  0  0  0  0  0  0  0  0  0  0  0
    2.4213   -0.0262    0.9986 C   0  0  0  0  0  0  0  0  0  0  0  0
    1.5966   -0.5109    2.1336 C   0  0  0  0  0  0  0  0  0  0  0  0
    3.7448   -0.4077    0.8361 C   0  0  0  0  0  0  0  0  0  0  0  0
    4.5357   -1.3365    1.7110 C   0  0  0  0  0  0  0  0  0  0  0  0
    4.1896    0.2310   -0.2830 C   0  0  0  0  0  0  0  0  0  0  0  0
    5.4312    0.1971   -0.8833 C   0  0  0  0  0  0  0  0  0  0  0  0
    5.6474    0.9400   -2.0250 C   0  0  0  0  0  0  0  0  0  0  0  0
    4.6192    1.7061   -2.5504 C   0  0  0  0  0  0  0  0  0  0  0  0
    3.3868    1.7131   -1.9183 C   0  0  0  0  0  0  0  0  0  0  0  0
    3.1338    0.9806   -0.7717 C   0  0  0  0  0  0  0  0  0  0  0  0
   -2.6201   -2.9626   -0.7106 H   0  0  0  0  0  0  0  0  0  0  0  0
   -4.4000   -2.9824   -0.6570 H   0  0  0  0  0  0  0  0  0  0  0  0
   -3.5104   -2.6933    0.8494 H   0  0  0  0  0  0  0  0  0  0  0  0
   -3.3109   -0.6946   -1.4747 H   0  0  0  0  0  0  0  0  0  0  0  0
   -5.4656   -1.3212    0.5327 H   0  0  0  0  0  0  0  0  0  0  0  0
   -5.5319   -0.6441   -1.0962 H   0  0  0  0  0  0  0  0  0  0  0  0
   -5.2517    1.5708   -0.3770 H   0  0  0  0  0  0  0  0  0  0  0  0
   -6.1489    0.7886    0.9327 H   0  0  0  0  0  0  0  0  0  0  0  0
   -4.0910    0.5300    2.2741 H   0  0  0  0  0  0  0  0  0  0  0  0
   -4.3497    2.2802    1.6917 H   0  0  0  0  0  0  0  0  0  0  0  0
   -1.9902    1.5411    1.3462 H   0  0  0  0  0  0  0  0  0  0  0  0
   -2.9140    1.6269   -0.2383 H   0  0  0  0  0  0  0  0  0  0  0  0
   -2.9639   -0.8156    1.5663 H   0  0  0  0  0  0  0  0  0  0  0  0
   -0.9422   -1.5018    1.1743 H   0  0  0  0  0  0  0  0  0  0  0  0
    0.5087   -1.1680   -0.4595 H   0  0  0  0  0  0  0  0  0  0  0  0
   -0.8610   -1.2085   -1.5557 H   0  0  0  0  0  0  0  0  0  0  0  0
   -0.9774    1.2605   -1.5153 H   0  0  0  0  0  0  0  0  0  0  0  0
    1.2076   -0.3490   -2.2436 H   0  0  0  0  0  0  0  0  0  0  0  0
    0.2743    1.6753    0.7174 H   0  0  0  0  0  0  0  0  0  0  0  0
    0.9928    2.4512   -0.7376 H   0  0  0  0  0  0  0  0  0  0  0  0
    1.2938   -1.5644    1.9825 H   0  0  0  0  0  0  0  0  0  0  0  0
    2.2246   -0.5264    3.0673 H   0  0  0  0  0  0  0  0  0  0  0  0
    0.6796    0.0942    2.3004 H   0  0  0  0  0  0  0  0  0  0  0  0
    5.3628   -0.7519    2.1680 H   0  0  0  0  0  0  0  0  0  0  0  0
    3.8884   -1.7514    2.5082 H   0  0  0  0  0  0  0  0  0  0  0  0
    4.9261   -2.1431    1.0595 H   0  0  0  0  0  0  0  0  0  0  0  0
    6.2270   -0.4063   -0.4635 H   0  0  0  0  0  0  0  0  0  0  0  0
    6.6348    0.8925   -2.4760 H   0  0  0  0  0  0  0  0  0  0  0  0
    4.7911    2.2862   -3.4432 H   0  0  0  0  0  0  0  0  0  0  0  0
    2.6141    2.3247   -2.3629 H   0  0  0  0  0  0  0  0  0  0  0  0
  1  2  1  0
  2  3  1  0
  3  4  1  0
  4  5  1  0
  5  6  1  0
  6  7  1  0
  7  8  1  0
  8  9  1  0
  9 10  1  0
 10 11  1  0
 10 12  1  0
 12 13  1  0
 13 14  1  0
 14 15  1  0
 14 16  2  0
 16 17  1  0
 16 18  1  0
 18 19  2  0
 19 20  1  0
 20 21  2  0
 21 22  1  0
 22 23  2  0
  7  2  1  0
 23 13  1  0
 23 18  1  0
  1 24  1  0
  1 25  1  0
  1 26  1  0
  2 27  1  0
  3 28  1  0
  3 29  1  0
  4 30  1  0
  4 31  1  0
  5 32  1  0
  5 33  1  0
  6 34  1  0
  6 35  1  0
  7 36  1  0
  8 37  1  0
  9 38  1  0
  9 39  1  0
 10 40  1  0
 11 41  1  0
 12 42  1  0
 12 43  1  0
 15 44  1  0
 15 45  1  0
 15 46  1  0
 17 47  1  0
 17 48  1  0
 17 49  1  0
 19 50  1  0
 20 51  1  0
 21 52  1  0
 22 53  1  0
M  END
>  <Batch_No>  (220) 
OSSK_924330

>  <EC50_nM>  (220) 
769

>  <Set>  (220) 
Drug-like

>  <Molecular_Weight>  (220) 
314.46499

>  <ALogP>  (220) 
4.23

$$$$
MMV667487
     RDKit          3D

 39 40  0  0  0  0  0  0  0  0999 V2000
    4.4998   -0.8624    1.5456 C   0  0  0  0  0  0  0  0  0  0  0  0
    3.9237   -0.8825    0.2187 N   0  0  0  0  0  0  0  0  0  0  0  0
    4.6857   -1.2768   -0.9522 C   0  0  0  0  0  0  0  0  0  0  0  0
    2.5578   -0.4963    0.0888 C   0  0  0  0  0  0  0  0  0  0  0  0
    1.8584   -0.1265    1.2185 C   0  0  0  0  0  0  0  0  0  0  0  0
    0.5341    0.2557    1.1466 C   0  0  0  0  0  0  0  0  0  0  0  0
   -0.1067    0.2693   -0.0794 C   0  0  0  0  0  0  0  0  0  0  0  0
    0.5706   -0.0974   -1.2326 C   0  0  0  0  0  0  0  0  0  0  0  0
    1.8956   -0.4742   -1.1214 C   0  0  0  0  0  0  0  0  0  0  0  0
   -1.4739    0.6707   -0.1055 N   0  0  0  0  0  0  0  0  0  0  0  0
   -1.7285    2.0571   -0.2907 C   0  0  0  0  0  0  0  0  0  0  0  0
   -2.9963    2.3951   -0.3101 N   0  0  0  0  0  0  0  0  0  0  0  0
   -4.0175    1.4224   -0.1546 C   0  0  0  0  0  0  0  0  0  0  0  0
   -3.8214    0.1748    0.0128 N   0  0  0  0  0  0  0  0  0  0  0  0
   -2.4731   -0.3382    0.0545 C   0  0  0  0  0  0  0  0  0  0  0  0
   -2.3450   -1.0974    1.3558 C   0  0  0  0  0  0  0  0  0  0  0  0
   -2.4001   -1.3779   -1.0632 C   0  0  0  0  0  0  0  0  0  0  0  0
   -5.3646    1.8904   -0.1901 N   0  0  0  0  0  0  0  0  0  0  0  0
   -0.6948    3.0253   -0.4459 N   0  0  0  0  0  0  0  0  0  0  0  0
    4.0598   -1.6822    2.1424 H   0  0  0  0  0  0  0  0  0  0  0  0
    4.3614    0.1043    2.0678 H   0  0  0  0  0  0  0  0  0  0  0  0
    5.6067   -1.0056    1.4183 H   0  0  0  0  0  0  0  0  0  0  0  0
    5.7687   -1.1376   -0.6770 H   0  0  0  0  0  0  0  0  0  0  0  0
    4.4442   -0.6338   -1.8047 H   0  0  0  0  0  0  0  0  0  0  0  0
    4.5479   -2.3476   -1.1967 H   0  0  0  0  0  0  0  0  0  0  0  0
    2.3385   -0.1263    2.2088 H   0  0  0  0  0  0  0  0  0  0  0  0
    0.0315    0.5360    2.0595 H   0  0  0  0  0  0  0  0  0  0  0  0
    0.0456   -0.0781   -2.1800 H   0  0  0  0  0  0  0  0  0  0  0  0
    2.4174   -0.7588   -2.0248 H   0  0  0  0  0  0  0  0  0  0  0  0
   -2.1848   -0.4132    2.2119 H   0  0  0  0  0  0  0  0  0  0  0  0
   -3.3168   -1.6075    1.5231 H   0  0  0  0  0  0  0  0  0  0  0  0
   -1.6061   -1.9217    1.2919 H   0  0  0  0  0  0  0  0  0  0  0  0
   -3.3334   -1.9749   -1.0093 H   0  0  0  0  0  0  0  0  0  0  0  0
   -1.5643   -2.0757   -0.8764 H   0  0  0  0  0  0  0  0  0  0  0  0
   -2.3495   -0.8932   -2.0580 H   0  0  0  0  0  0  0  0  0  0  0  0
   -5.8311    2.1653   -1.1040 H   0  0  0  0  0  0  0  0  0  0  0  0
   -5.9011    1.9621    0.7127 H   0  0  0  0  0  0  0  0  0  0  0  0
   -0.1757    3.4365    0.3629 H   0  0  0  0  0  0  0  0  0  0  0  0
   -0.4623    3.3207   -1.3996 H   0  0  0  0  0  0  0  0  0  0  0  0
  1  2  1  0
  2  3  1  0
  2  4  1  0
  4  5  2  0
  5  6  1  0
  6  7  2  0
  7  8  1  0
  8  9  2  0
  7 10  1  0
 10 11  1  0
 11 12  2  0
 12 13  1  0
 13 14  2  0
 14 15  1  0
 15 16  1  0
 15 17  1  0
 13 18  1  0
 11 19  1  0
  9  4  1  0
 15 10  1  0
  1 20  1  0
  1 21  1  0
  1 22  1  0
  3 23  1  0
  3 24  1  0
  3 25  1  0
  5 26  1  0
  6 27  1  0
  8 28  1  0
  9 29  1  0
 16 30  1  0
 16 31  1  0
 16 32  1  0
 17 33  1  0
 17 34  1  0
 17 35  1  0
 18 36  1  0
 18 37  1  0
 19 38  1  0
 19 39  1  0
M  END
>  <Batch_No>  (221) 
5300-0085

>  <EC50_nM>  (221) 
ND

>  <Set>  (221) 
Drug-like

>  <Molecular_Weight>  (221) 
260.3381

>  <ALogP>  (221) 
1.121

$$$$
MMV000356
     RDKit          3D

 43 45  0  0  0  0  0  0  0  0999 V2000
    3.5731   -0.4095   -0.3490 C   0  0  0  0  0  0  0  0  0  0  0  0
    3.9245    0.7651   -1.0075 C   0  0  0  0  0  0  0  0  0  0  0  0
    5.1166    1.4148   -0.7142 C   0  0  0  0  0  0  0  0  0  0  0  0
    5.5346    3.0185   -1.6548 Br  0  0  0  0  0  0  0  0  0  0  0  0
    5.9706    0.8946    0.2432 C   0  0  0  0  0  0  0  0  0  0  0  0
    5.6123   -0.2789    0.8963 C   0  0  0  0  0  0  0  0  0  0  0  0
    4.4173   -0.9374    0.6076 C   0  0  0  0  0  0  0  0  0  0  0  0
    4.0588   -2.1128    1.2620 O   0  0  0  0  0  0  0  0  0  0  0  0
    2.2937   -1.0383   -0.7150 C   0  0  0  0  0  0  0  0  0  0  0  0
    1.2374   -0.8287    0.2649 N   0  0  0  0  0  0  0  0  0  0  0  0
    0.0741   -1.4924   -0.2402 C   0  0  0  0  0  0  0  0  0  0  0  0
   -1.2347   -0.9702    0.3071 C   0  0  0  0  0  0  0  0  0  0  0  0
    1.0431    0.5544    0.5786 C   0  0  0  0  0  0  0  0  0  0  0  0
   -0.1314    1.0265   -0.2650 C   0  0  0  0  0  0  0  0  0  0  0  0
   -1.3108    0.4465    0.3559 N   0  0  0  0  0  0  0  0  0  0  0  0
   -2.4622    1.0596   -0.2117 C   0  0  0  0  0  0  0  0  0  0  0  0
   -3.7594    0.6197    0.2939 C   0  0  0  0  0  0  0  0  0  0  0  0
   -4.2694    1.2555    1.4242 C   0  0  0  0  0  0  0  0  0  0  0  0
   -5.4948    0.8954    1.9509 C   0  0  0  0  0  0  0  0  0  0  0  0
   -6.2655   -0.1008    1.3903 C   0  0  0  0  0  0  0  0  0  0  0  0
   -5.7687   -0.7447    0.2607 C   0  0  0  0  0  0  0  0  0  0  0  0
   -6.4847   -1.7401   -0.3414 F   0  0  0  0  0  0  0  0  0  0  0  0
   -4.5411   -0.3715   -0.2532 C   0  0  0  0  0  0  0  0  0  0  0  0
    3.2702    1.1700   -1.7452 H   0  0  0  0  0  0  0  0  0  0  0  0
    6.8902    1.4207    0.4507 H   0  0  0  0  0  0  0  0  0  0  0  0
    6.2836   -0.6853    1.6465 H   0  0  0  0  0  0  0  0  0  0  0  0
    4.6900   -2.9154    1.2337 H   0  0  0  0  0  0  0  0  0  0  0  0
    1.9687   -0.7617   -1.7385 H   0  0  0  0  0  0  0  0  0  0  0  0
    2.4523   -2.1563   -0.7454 H   0  0  0  0  0  0  0  0  0  0  0  0
    0.0344   -1.5035   -1.3568 H   0  0  0  0  0  0  0  0  0  0  0  0
    0.1496   -2.5609    0.0517 H   0  0  0  0  0  0  0  0  0  0  0  0
   -2.0200   -1.3611   -0.3650 H   0  0  0  0  0  0  0  0  0  0  0  0
   -1.3421   -1.4518    1.3219 H   0  0  0  0  0  0  0  0  0  0  0  0
    1.9255    1.1805    0.4682 H   0  0  0  0  0  0  0  0  0  0  0  0
    0.7151    0.6349    1.6532 H   0  0  0  0  0  0  0  0  0  0  0  0
   -0.0758    0.6879   -1.3076 H   0  0  0  0  0  0  0  0  0  0  0  0
   -0.1866    2.1338   -0.2994 H   0  0  0  0  0  0  0  0  0  0  0  0
   -2.3678    2.1599   -0.0079 H   0  0  0  0  0  0  0  0  0  0  0  0
   -2.4484    0.9466   -1.3202 H   0  0  0  0  0  0  0  0  0  0  0  0
   -3.7324    2.0478    1.9289 H   0  0  0  0  0  0  0  0  0  0  0  0
   -5.9081    1.3855    2.8375 H   0  0  0  0  0  0  0  0  0  0  0  0
   -7.2277   -0.4051    1.7800 H   0  0  0  0  0  0  0  0  0  0  0  0
   -4.2041   -0.8920   -1.1282 H   0  0  0  0  0  0  0  0  0  0  0  0
  1  2  2  0
  2  3  1  0
  3  4  1  0
  3  5  2  0
  5  6  1  0
  6  7  2  0
  7  8  1  0
  1  9  1  0
  9 10  1  0
 10 11  1  0
 11 12  1  0
 10 13  1  0
 13 14  1  0
 14 15  1  0
 15 16  1  0
 16 17  1  0
 17 18  2  0
 18 19  1  0
 19 20  2  0
 20 21  1  0
 21 22  1  0
 21 23  2  0
  7  1  1  0
 15 12  1  0
 23 17  1  0
  2 24  1  0
  5 25  1  0
  6 26  1  0
  8 27  1  0
  9 28  1  0
  9 29  1  0
 11 30  1  0
 11 31  1  0
 12 32  1  0
 12 33  1  0
 13 34  1  0
 13 35  1  0
 14 36  1  0
 14 37  1  0
 16 38  1  0
 16 39  1  0
 18 40  1  0
 19 41  1  0
 20 42  1  0
 23 43  1  0
M  END
>  <Batch_No>  (222) 
4964-3583

>  <EC50_nM>  (222) 
1030

>  <Set>  (222) 
Drug-like

>  <Molecular_Weight>  (222) 
379.2666

>  <ALogP>  (222) 
4.156

$$$$
MMV396705
     RDKit          3D

 49 52  0  0  0  0  0  0  0  0999 V2000
   -1.5340    2.0383   -0.0390 C   0  0  0  0  0  0  0  0  0  0  0  0
   -0.4491    1.9019    0.8325 C   0  0  0  0  0  0  0  0  0  0  0  0
    0.1532    3.0675    1.2258 C   0  0  0  0  0  0  0  0  0  0  0  0
    1.1233    3.0195    2.0029 O   0  0  0  0  0  0  0  0  0  0  0  0
   -0.2641    4.2741    0.8053 N   0  0  0  0  0  0  0  0  0  0  0  0
    0.3948    5.4957    1.2389 C   0  0  0  0  0  0  0  0  0  0  0  0
   -1.3108    4.3584   -0.0327 C   0  0  0  0  0  0  0  0  0  0  0  0
   -1.7370    5.4680   -0.4534 O   0  0  0  0  0  0  0  0  0  0  0  0
   -1.9508    3.2468   -0.4592 N   0  0  0  0  0  0  0  0  0  0  0  0
   -3.0908    3.3774   -1.3744 C   0  0  0  0  0  0  0  0  0  0  0  0
   -0.2451    0.5924    1.0979 N   0  0  0  0  0  0  0  0  0  0  0  0
    0.7590   -0.0033    1.9172 C   0  0  0  0  0  0  0  0  0  0  0  0
    1.9890   -0.4088    1.2394 C   0  0  0  0  0  0  0  0  0  0  0  0
    3.1212    0.3588    1.0919 C   0  0  0  0  0  0  0  0  0  0  0  0
    4.2590   -0.0796    0.4377 C   0  0  0  0  0  0  0  0  0  0  0  0
    4.3111   -1.3417   -0.1115 C   0  0  0  0  0  0  0  0  0  0  0  0
    3.1904   -2.1340    0.0211 C   0  0  0  0  0  0  0  0  0  0  0  0
    3.2327   -3.4017   -0.5263 O   0  0  0  0  0  0  0  0  0  0  0  0
    4.3573   -3.8881   -1.1951 C   0  0  0  0  0  0  0  0  0  0  0  0
    2.0577   -1.6906    0.6753 C   0  0  0  0  0  0  0  0  0  0  0  0
   -1.2045   -0.0886    0.3926 C   0  0  0  0  0  0  0  0  0  0  0  0
   -1.3073   -1.4626    0.4224 O   0  0  0  0  0  0  0  0  0  0  0  0
   -2.2107   -2.2492   -0.2299 C   0  0  0  0  0  0  0  0  0  0  0  0
   -3.2141   -1.8307   -1.0593 C   0  0  0  0  0  0  0  0  0  0  0  0
   -4.0976   -2.7089   -1.6884 C   0  0  0  0  0  0  0  0  0  0  0  0
   -3.9682   -4.0550   -1.4768 C   0  0  0  0  0  0  0  0  0  0  0  0
   -2.9720   -4.5085   -0.6503 C   0  0  0  0  0  0  0  0  0  0  0  0
   -2.1059   -3.6302   -0.0349 C   0  0  0  0  0  0  0  0  0  0  0  0
   -1.9539    0.8084   -0.2733 N   0  0  0  0  0  0  0  0  0  0  0  0
    1.2688    5.2710    1.8548 H   0  0  0  0  0  0  0  0  0  0  0  0
   -0.2637    6.1468    1.8366 H   0  0  0  0  0  0  0  0  0  0  0  0
    0.7705    5.9906    0.3096 H   0  0  0  0  0  0  0  0  0  0  0  0
   -2.9068    4.1979   -2.1030 H   0  0  0  0  0  0  0  0  0  0  0  0
   -4.0376    3.5717   -0.8086 H   0  0  0  0  0  0  0  0  0  0  0  0
   -3.2573    2.4459   -1.9348 H   0  0  0  0  0  0  0  0  0  0  0  0
    1.0308    0.6430    2.8011 H   0  0  0  0  0  0  0  0  0  0  0  0
    0.3519   -0.9333    2.4126 H   0  0  0  0  0  0  0  0  0  0  0  0
    3.1614    1.3554    1.4979 H   0  0  0  0  0  0  0  0  0  0  0  0
    5.1367    0.5707    0.3463 H   0  0  0  0  0  0  0  0  0  0  0  0
    5.2148   -1.6511   -0.6150 H   0  0  0  0  0  0  0  0  0  0  0  0
    4.0175   -4.7597   -1.8252 H   0  0  0  0  0  0  0  0  0  0  0  0
    4.8171   -3.1910   -1.9086 H   0  0  0  0  0  0  0  0  0  0  0  0
    5.1519   -4.2833   -0.5348 H   0  0  0  0  0  0  0  0  0  0  0  0
    1.2350   -2.3872    0.7284 H   0  0  0  0  0  0  0  0  0  0  0  0
   -3.3502   -0.8000   -1.2507 H   0  0  0  0  0  0  0  0  0  0  0  0
   -4.8791   -2.3460   -2.3373 H   0  0  0  0  0  0  0  0  0  0  0  0
   -4.6166   -4.7843   -1.9316 H   0  0  0  0  0  0  0  0  0  0  0  0
   -2.8436   -5.5556   -0.4636 H   0  0  0  0  0  0  0  0  0  0  0  0
   -1.3343   -4.0276    0.6089 H   0  0  0  0  0  0  0  0  0  0  0  0
  1  2  2  0
  2  3  1  0
  3  4  2  0
  3  5  1  0
  5  6  1  0
  5  7  1  0
  7  8  2  0
  7  9  1  0
  9 10  1  0
  2 11  1  0
 11 12  1  0
 12 13  1  0
 13 14  2  0
 14 15  1  0
 15 16  2  0
 16 17  1  0
 17 18  1  0
 18 19  1  0
 17 20  2  0
 11 21  1  0
 21 22  1  0
 22 23  1  0
 23 24  2  0
 24 25  1  0
 25 26  2  0
 26 27  1  0
 27 28  2  0
 21 29  2  0
  9  1  1  0
 29  1  1  0
 20 13  1  0
 28 23  1  0
  6 30  1  0
  6 31  1  0
  6 32  1  0
 10 33  1  0
 10 34  1  0
 10 35  1  0
 12 36  1  0
 12 37  1  0
 14 38  1  0
 15 39  1  0
 16 40  1  0
 19 41  1  0
 19 42  1  0
 19 43  1  0
 20 44  1  0
 24 45  1  0
 25 46  1  0
 26 47  1  0
 27 48  1  0
 28 49  1  0
M  END
>  <Batch_No>  (223) 
STK527893

>  <EC50_nM>  (223) 
1390

>  <Set>  (223) 
Drug-like

>  <Molecular_Weight>  (223) 
392.4079

>  <ALogP>  (223) 
3.569

$$$$
MMV006704
     RDKit          3D

 43 45  0  0  0  0  0  0  0  0999 V2000
    4.7802   -1.1079    1.1626 C   0  0  0  0  0  0  0  0  0  0  0  0
    3.3776   -1.2544    1.5911 N   0  0  0  0  0  0  0  0  0  0  0  0
    3.1547   -0.1548    2.5319 C   0  0  0  0  0  0  0  0  0  0  0  0
    2.5079   -1.1399    0.4172 C   0  0  0  0  0  0  0  0  0  0  0  0
    2.5732    0.2901   -0.0646 C   0  0  0  0  0  0  0  0  0  0  0  0
    1.7443    0.5216   -1.2389 N   0  0  0  0  0  0  0  0  0  0  0  0
    0.3322    0.5465   -1.2279 C   0  0  0  0  0  0  0  0  0  0  0  0
   -0.4289    0.4164   -0.0784 C   0  0  0  0  0  0  0  0  0  0  0  0
   -1.8026    0.4683   -0.0652 C   0  0  0  0  0  0  0  0  0  0  0  0
   -2.4394    0.6564   -1.2308 N   0  0  0  0  0  0  0  0  0  0  0  0
   -1.7561    0.7900   -2.3768 C   0  0  0  0  0  0  0  0  0  0  0  0
   -2.5199    0.9781   -3.5249 C   0  0  0  0  0  0  0  0  0  0  0  0
   -1.8939    1.1218   -4.7509 C   0  0  0  0  0  0  0  0  0  0  0  0
   -0.5229    1.0720   -4.7829 C   0  0  0  0  0  0  0  0  0  0  0  0
    0.2253    0.8843   -3.6317 C   0  0  0  0  0  0  0  0  0  0  0  0
   -0.3785    0.7391   -2.4023 C   0  0  0  0  0  0  0  0  0  0  0  0
   -2.6126    0.3329    1.1349 C   0  0  0  0  0  0  0  0  0  0  0  0
   -2.0768    0.1332    2.3980 C   0  0  0  0  0  0  0  0  0  0  0  0
   -2.9007    0.0089    3.5247 C   0  0  0  0  0  0  0  0  0  0  0  0
   -4.2691    0.0833    3.3942 C   0  0  0  0  0  0  0  0  0  0  0  0
   -4.8203    0.2814    2.1497 C   0  0  0  0  0  0  0  0  0  0  0  0
   -3.9990    0.4026    1.0467 C   0  0  0  0  0  0  0  0  0  0  0  0
    5.4091   -1.6487    1.8839 H   0  0  0  0  0  0  0  0  0  0  0  0
    5.0007   -0.0335    1.1562 H   0  0  0  0  0  0  0  0  0  0  0  0
    4.8530   -1.5195    0.1341 H   0  0  0  0  0  0  0  0  0  0  0  0
    3.7071   -0.4133    3.4697 H   0  0  0  0  0  0  0  0  0  0  0  0
    2.0693   -0.0257    2.7020 H   0  0  0  0  0  0  0  0  0  0  0  0
    3.6108    0.7739    2.1049 H   0  0  0  0  0  0  0  0  0  0  0  0
    1.5206   -1.4687    0.6969 H   0  0  0  0  0  0  0  0  0  0  0  0
    2.9756   -1.8301   -0.3364 H   0  0  0  0  0  0  0  0  0  0  0  0
    2.0996    0.9101    0.7541 H   0  0  0  0  0  0  0  0  0  0  0  0
    3.6201    0.5526   -0.2257 H   0  0  0  0  0  0  0  0  0  0  0  0
    2.2763    0.6793   -2.1232 H   0  0  0  0  0  0  0  0  0  0  0  0
    0.0558    0.2816    0.8770 H   0  0  0  0  0  0  0  0  0  0  0  0
   -3.6185    1.0110   -3.4504 H   0  0  0  0  0  0  0  0  0  0  0  0
   -2.4567    1.2706   -5.6753 H   0  0  0  0  0  0  0  0  0  0  0  0
   -0.0053    1.1825   -5.7422 H   0  0  0  0  0  0  0  0  0  0  0  0
    1.2771    0.8572   -3.7391 H   0  0  0  0  0  0  0  0  0  0  0  0
   -1.0139    0.0695    2.5508 H   0  0  0  0  0  0  0  0  0  0  0  0
   -2.4082   -0.1488    4.4974 H   0  0  0  0  0  0  0  0  0  0  0  0
   -4.8469   -0.0208    4.3026 H   0  0  0  0  0  0  0  0  0  0  0  0
   -5.8954    0.3346    2.0922 H   0  0  0  0  0  0  0  0  0  0  0  0
   -4.5048    0.5579    0.0951 H   0  0  0  0  0  0  0  0  0  0  0  0
  1  2  1  0
  2  3  1  0
  2  4  1  0
  4  5  1  0
  5  6  1  0
  6  7  1  0
  7  8  2  0
  8  9  1  0
  9 10  2  0
 10 11  1  0
 11 12  2  0
 12 13  1  0
 13 14  2  0
 14 15  1  0
 15 16  2  0
  9 17  1  0
 17 18  2  0
 18 19  1  0
 19 20  2  0
 20 21  1  0
 21 22  2  0
 16  7  1  0
 16 11  1  0
 22 17  1  0
  1 23  1  0
  1 24  1  0
  1 25  1  0
  3 26  1  0
  3 27  1  0
  3 28  1  0
  4 29  1  0
  4 30  1  0
  5 31  1  0
  5 32  1  0
  6 33  1  0
  8 34  1  0
 12 35  1  0
 13 36  1  0
 14 37  1  0
 15 38  1  0
 18 39  1  0
 19 40  1  0
 20 41  1  0
 21 42  1  0
 22 43  1  0
M  END
>  <Batch_No>  (224) 
STK534381

>  <EC50_nM>  (224) 
4000

>  <Set>  (224) 
Drug-like

>  <Molecular_Weight>  (224) 
291.39014

>  <ALogP>  (224) 
3.91

$$$$
MMV000760
     RDKit          3D

 45 48  0  0  0  0  0  0  0  0999 V2000
    2.6751    2.1926   -0.3979 O   0  0  0  0  0  0  0  0  0  0  0  0
    3.1012    0.9309   -0.0079 C   0  0  0  0  0  0  0  0  0  0  0  0
    2.2822    0.1769    0.8365 C   0  0  0  0  0  0  0  0  0  0  0  0
    1.0070    0.7573    1.2730 C   0  0  0  0  0  0  0  0  0  0  0  0
   -0.0380    0.7366    0.2659 N   0  0  0  0  0  0  0  0  0  0  0  0
   -0.3717   -0.5839   -0.1528 C   0  0  0  0  0  0  0  0  0  0  0  0
   -1.7422   -0.7779   -0.7113 C   0  0  0  0  0  0  0  0  0  0  0  0
   -2.7412   -0.0881    0.1383 N   0  0  0  0  0  0  0  0  0  0  0  0
   -2.1899    0.4910    1.3383 C   0  0  0  0  0  0  0  0  0  0  0  0
   -1.1366    1.4949    0.8331 C   0  0  0  0  0  0  0  0  0  0  0  0
   -4.0692   -0.0722   -0.2889 C   0  0  0  0  0  0  0  0  0  0  0  0
   -4.4041   -0.7899   -1.4465 C   0  0  0  0  0  0  0  0  0  0  0  0
   -5.6894   -0.8370   -1.9338 C   0  0  0  0  0  0  0  0  0  0  0  0
   -6.7378   -0.1745   -1.3079 C   0  0  0  0  0  0  0  0  0  0  0  0
   -6.4174    0.5308   -0.1739 C   0  0  0  0  0  0  0  0  0  0  0  0
   -5.1158    0.5788    0.3206 C   0  0  0  0  0  0  0  0  0  0  0  0
   -4.9191    1.3024    1.4296 F   0  0  0  0  0  0  0  0  0  0  0  0
    2.7117   -1.0935    1.2286 C   0  0  0  0  0  0  0  0  0  0  0  0
    3.9192   -1.5527    0.7715 C   0  0  0  0  0  0  0  0  0  0  0  0
    4.4955   -3.3014    1.3177 Br  0  0  0  0  0  0  0  0  0  0  0  0
    4.7204   -0.8043   -0.0598 C   0  0  0  0  0  0  0  0  0  0  0  0
    5.9490   -1.2885   -0.5148 C   0  0  0  0  0  0  0  0  0  0  0  0
    6.6996   -0.4701   -1.3512 C   0  0  0  0  0  0  0  0  0  0  0  0
    6.2392    0.7766   -1.7142 C   0  0  0  0  0  0  0  0  0  0  0  0
    5.0425    1.2285   -1.2610 N   0  0  0  0  0  0  0  0  0  0  0  0
    4.3188    0.4482   -0.4591 C   0  0  0  0  0  0  0  0  0  0  0  0
    2.8206    2.9570    0.2658 H   0  0  0  0  0  0  0  0  0  0  0  0
    0.6155    0.2107    2.1532 H   0  0  0  0  0  0  0  0  0  0  0  0
    1.1844    1.8183    1.5387 H   0  0  0  0  0  0  0  0  0  0  0  0
    0.3524   -0.8583   -0.9698 H   0  0  0  0  0  0  0  0  0  0  0  0
   -0.1768   -1.2793    0.6905 H   0  0  0  0  0  0  0  0  0  0  0  0
   -1.9462   -1.8834   -0.6543 H   0  0  0  0  0  0  0  0  0  0  0  0
   -1.8327   -0.3728   -1.7159 H   0  0  0  0  0  0  0  0  0  0  0  0
   -1.6055   -0.3594    1.8160 H   0  0  0  0  0  0  0  0  0  0  0  0
   -2.8733    0.9239    2.0475 H   0  0  0  0  0  0  0  0  0  0  0  0
   -1.5835    2.1375    0.0492 H   0  0  0  0  0  0  0  0  0  0  0  0
   -0.8620    2.1090    1.6932 H   0  0  0  0  0  0  0  0  0  0  0  0
   -3.6506   -1.3414   -2.0059 H   0  0  0  0  0  0  0  0  0  0  0  0
   -5.9076   -1.4115   -2.8441 H   0  0  0  0  0  0  0  0  0  0  0  0
   -7.7465   -0.1967   -1.6690 H   0  0  0  0  0  0  0  0  0  0  0  0
   -7.2126    1.0645    0.3465 H   0  0  0  0  0  0  0  0  0  0  0  0
    2.0549   -1.6651    1.8885 H   0  0  0  0  0  0  0  0  0  0  0  0
    6.2891   -2.2738   -0.2141 H   0  0  0  0  0  0  0  0  0  0  0  0
    7.6704   -0.8210   -1.7269 H   0  0  0  0  0  0  0  0  0  0  0  0
    6.8210    1.4305   -2.3719 H   0  0  0  0  0  0  0  0  0  0  0  0
  1  2  1  0
  2  3  2  0
  3  4  1  0
  4  5  1  0
  5  6  1  0
  6  7  1  0
  7  8  1  0
  8  9  1  0
  9 10  1  0
  8 11  1  0
 11 12  2  0
 12 13  1  0
 13 14  2  0
 14 15  1  0
 15 16  2  0
 16 17  1  0
  3 18  1  0
 18 19  2  0
 19 20  1  0
 19 21  1  0
 21 22  2  0
 22 23  1  0
 23 24  2  0
 24 25  1  0
 25 26  2  0
 26  2  1  0
 10  5  1  0
 16 11  1  0
 26 21  1  0
  1 27  1  0
  4 28  1  0
  4 29  1  0
  6 30  1  0
  6 31  1  0
  7 32  1  0
  7 33  1  0
  9 34  1  0
  9 35  1  0
 10 36  1  0
 10 37  1  0
 12 38  1  0
 13 39  1  0
 14 40  1  0
 15 41  1  0
 18 42  1  0
 22 43  1  0
 23 44  1  0
 24 45  1  0
M  END
>  <Batch_No>  (225) 
STK684882

>  <EC50_nM>  (225) 
ND

>  <Set>  (225) 
Drug-like

>  <Molecular_Weight>  (225) 
416.28676

>  <ALogP>  (225) 
4.431

$$$$
MMV007881
     RDKit          3D

 52 53  0  0  0  0  0  0  0  0999 V2000
   -3.9912   -4.0159    0.5267 C   0  0  0  0  0  0  0  0  0  0  0  0
   -3.1667   -2.9462   -0.1252 C   0  0  0  0  0  0  0  0  0  0  0  0
   -3.2789   -1.6156    0.5802 C   0  0  0  0  0  0  0  0  0  0  0  0
   -2.3900   -0.6328   -0.1940 C   0  0  0  0  0  0  0  0  0  0  0  0
   -2.4138    0.6749    0.3841 N   0  0  0  0  0  0  0  0  0  0  0  0
   -2.3909    1.7506   -0.5567 C   0  0  0  0  0  0  0  0  0  0  0  0
   -3.2326    2.9315   -0.1231 C   0  0  0  0  0  0  0  0  0  0  0  0
   -4.6875    2.5434    0.0543 C   0  0  0  0  0  0  0  0  0  0  0  0
   -5.2592    2.0217   -1.2314 C   0  0  0  0  0  0  0  0  0  0  0  0
   -1.1616    0.8046    1.5658 S   0  0  0  0  0  0  0  0  0  0  0  0
   -1.3331   -0.1857    2.6678 O   0  0  0  0  0  0  0  0  0  0  0  0
   -1.2372    2.2053    2.1423 O   0  0  0  0  0  0  0  0  0  0  0  0
    0.4320    0.5871    0.8794 C   0  0  0  0  0  0  0  0  0  0  0  0
    1.1724    1.6526    0.3876 C   0  0  0  0  0  0  0  0  0  0  0  0
    2.4382    1.4633   -0.1545 C   0  0  0  0  0  0  0  0  0  0  0  0
    2.9519    0.1760   -0.1947 C   0  0  0  0  0  0  0  0  0  0  0  0
    4.2490   -0.1001   -0.7376 N   0  0  0  0  0  0  0  0  0  0  0  0
    5.3347   -0.0483    0.1891 C   0  0  0  0  0  0  0  0  0  0  0  0
    5.1498    0.2270    1.4191 O   0  0  0  0  0  0  0  0  0  0  0  0
    6.7009   -0.3117   -0.2496 C   0  0  0  0  0  0  0  0  0  0  0  0
    7.7487   -0.2862    0.5287 O   0  0  0  0  0  0  0  0  0  0  0  0
    8.8522   -0.5590   -0.1198 C   0  0  0  0  0  0  0  0  0  0  0  0
    8.4801   -0.7813   -1.4403 C   0  0  0  0  0  0  0  0  0  0  0  0
    7.0979   -0.6243   -1.5330 C   0  0  0  0  0  0  0  0  0  0  0  0
    2.2433   -0.8960    0.2837 C   0  0  0  0  0  0  0  0  0  0  0  0
    0.9772   -0.6940    0.8241 C   0  0  0  0  0  0  0  0  0  0  0  0
   -3.6558   -4.2141    1.5489 H   0  0  0  0  0  0  0  0  0  0  0  0
   -3.7959   -4.9536   -0.0427 H   0  0  0  0  0  0  0  0  0  0  0  0
   -5.0783   -3.8479    0.4396 H   0  0  0  0  0  0  0  0  0  0  0  0
   -2.1162   -3.2668   -0.0945 H   0  0  0  0  0  0  0  0  0  0  0  0
   -3.4896   -2.8080   -1.1612 H   0  0  0  0  0  0  0  0  0  0  0  0
   -3.0182   -1.6338    1.6411 H   0  0  0  0  0  0  0  0  0  0  0  0
   -4.3290   -1.2342    0.4852 H   0  0  0  0  0  0  0  0  0  0  0  0
   -1.3628   -1.0498   -0.2920 H   0  0  0  0  0  0  0  0  0  0  0  0
   -2.7758   -0.5715   -1.2408 H   0  0  0  0  0  0  0  0  0  0  0  0
   -2.7954    1.4000   -1.5350 H   0  0  0  0  0  0  0  0  0  0  0  0
   -1.3656    2.1404   -0.7392 H   0  0  0  0  0  0  0  0  0  0  0  0
   -2.8317    3.3850    0.7870 H   0  0  0  0  0  0  0  0  0  0  0  0
   -3.2151    3.6803   -0.9411 H   0  0  0  0  0  0  0  0  0  0  0  0
   -4.7694    1.7638    0.8391 H   0  0  0  0  0  0  0  0  0  0  0  0
   -5.2309    3.4842    0.3022 H   0  0  0  0  0  0  0  0  0  0  0  0
   -6.3719    2.0346   -1.1486 H   0  0  0  0  0  0  0  0  0  0  0  0
   -4.9468    0.9564   -1.3375 H   0  0  0  0  0  0  0  0  0  0  0  0
   -4.9666    2.6075   -2.1103 H   0  0  0  0  0  0  0  0  0  0  0  0
    0.7380    2.6490    0.4352 H   0  0  0  0  0  0  0  0  0  0  0  0
    3.0060    2.2968   -0.5341 H   0  0  0  0  0  0  0  0  0  0  0  0
    4.4131   -0.3259   -1.7379 H   0  0  0  0  0  0  0  0  0  0  0  0
    9.8473   -0.5995    0.3021 H   0  0  0  0  0  0  0  0  0  0  0  0
    9.1865   -1.0308   -2.2223 H   0  0  0  0  0  0  0  0  0  0  0  0
    6.5102   -0.7289   -2.4117 H   0  0  0  0  0  0  0  0  0  0  0  0
    2.6765   -1.9074    0.2389 H   0  0  0  0  0  0  0  0  0  0  0  0
    0.4518   -1.5667    1.1905 H   0  0  0  0  0  0  0  0  0  0  0  0
  1  2  1  0
  2  3  1  0
  3  4  1  0
  4  5  1  0
  5  6  1  0
  6  7  1  0
  7  8  1  0
  8  9  1  0
  5 10  1  0
 10 11  2  0
 10 12  2  0
 10 13  1  0
 13 14  2  0
 14 15  1  0
 15 16  2  0
 16 17  1  0
 17 18  1  0
 18 19  2  0
 18 20  1  0
 20 21  1  0
 21 22  1  0
 22 23  2  0
 23 24  1  0
 16 25  1  0
 25 26  2  0
 26 13  1  0
 24 20  2  0
  1 27  1  0
  1 28  1  0
  1 29  1  0
  2 30  1  0
  2 31  1  0
  3 32  1  0
  3 33  1  0
  4 34  1  0
  4 35  1  0
  6 36  1  0
  6 37  1  0
  7 38  1  0
  7 39  1  0
  8 40  1  0
  8 41  1  0
  9 42  1  0
  9 43  1  0
  9 44  1  0
 14 45  1  0
 15 46  1  0
 17 47  1  0
 22 48  1  0
 23 49  1  0
 24 50  1  0
 25 51  1  0
 26 52  1  0
M  END
>  <Batch_No>  (226) 
STK026426

>  <EC50_nM>  (226) 
ND

>  <Set>  (226) 
Drug-like

>  <Molecular_Weight>  (226) 
378.48574

>  <ALogP>  (226) 
3.784

$$$$
MMV008212
     RDKit          3D

 37 39  0  0  0  0  0  0  0  0999 V2000
    3.4598   -2.3161    2.4757 C   0  0  0  0  0  0  0  0  0  0  0  0
    2.3471   -2.0889    1.6365 O   0  0  0  0  0  0  0  0  0  0  0  0
    2.2085   -0.8686    1.0036 C   0  0  0  0  0  0  0  0  0  0  0  0
    3.1384    0.1488    1.1698 C   0  0  0  0  0  0  0  0  0  0  0  0
    3.0166    1.3743    0.5455 C   0  0  0  0  0  0  0  0  0  0  0  0
    1.9008    1.5611   -0.2777 C   0  0  0  0  0  0  0  0  0  0  0  0
    1.7820    2.7652   -0.9003 N   0  0  0  0  0  0  0  0  0  0  0  0
    0.7111    2.9725   -1.7124 C   0  0  0  0  0  0  0  0  0  0  0  0
    0.5730    4.2968   -2.4029 C   0  0  0  0  0  0  0  0  0  0  0  0
   -0.2355    1.9854   -1.9018 C   0  0  0  0  0  0  0  0  0  0  0  0
   -0.1384    0.7398   -1.2745 C   0  0  0  0  0  0  0  0  0  0  0  0
   -1.1301   -0.2182   -1.5121 N   0  0  0  0  0  0  0  0  0  0  0  0
   -1.9964   -0.7673   -0.5295 C   0  0  0  0  0  0  0  0  0  0  0  0
   -2.0779   -0.2796    0.7658 C   0  0  0  0  0  0  0  0  0  0  0  0
   -2.9301   -0.8302    1.7115 C   0  0  0  0  0  0  0  0  0  0  0  0
   -3.7381   -1.9037    1.3791 C   0  0  0  0  0  0  0  0  0  0  0  0
   -3.6734   -2.4060    0.0941 C   0  0  0  0  0  0  0  0  0  0  0  0
   -4.4900   -3.4796   -0.2169 O   0  0  0  0  0  0  0  0  0  0  0  0
   -2.8163   -1.8386   -0.8268 C   0  0  0  0  0  0  0  0  0  0  0  0
    0.9602    0.5672   -0.4608 C   0  0  0  0  0  0  0  0  0  0  0  0
    1.1232   -0.6365    0.1805 C   0  0  0  0  0  0  0  0  0  0  0  0
    4.4063   -2.0266    1.9532 H   0  0  0  0  0  0  0  0  0  0  0  0
    3.5840   -3.3885    2.7242 H   0  0  0  0  0  0  0  0  0  0  0  0
    3.3995   -1.7642    3.4401 H   0  0  0  0  0  0  0  0  0  0  0  0
    3.9890   -0.0315    1.8143 H   0  0  0  0  0  0  0  0  0  0  0  0
    3.7544    2.1566    0.6882 H   0  0  0  0  0  0  0  0  0  0  0  0
   -0.5169    4.5788   -2.3977 H   0  0  0  0  0  0  0  0  0  0  0  0
    0.9736    4.2782   -3.4306 H   0  0  0  0  0  0  0  0  0  0  0  0
    1.0666    5.1088   -1.8331 H   0  0  0  0  0  0  0  0  0  0  0  0
   -1.0878    2.1640   -2.5542 H   0  0  0  0  0  0  0  0  0  0  0  0
   -1.2426   -0.5595   -2.5042 H   0  0  0  0  0  0  0  0  0  0  0  0
   -1.4489    0.5547    1.0217 H   0  0  0  0  0  0  0  0  0  0  0  0
   -2.9405   -0.3892    2.7211 H   0  0  0  0  0  0  0  0  0  0  0  0
   -4.3885   -2.3045    2.1442 H   0  0  0  0  0  0  0  0  0  0  0  0
   -5.1526   -3.4388   -0.9763 H   0  0  0  0  0  0  0  0  0  0  0  0
   -2.8149   -2.2812   -1.8169 H   0  0  0  0  0  0  0  0  0  0  0  0
    0.4247   -1.4347    0.0596 H   0  0  0  0  0  0  0  0  0  0  0  0
  1  2  1  0
  2  3  1  0
  3  4  2  0
  4  5  1  0
  5  6  2  0
  6  7  1  0
  7  8  2  0
  8  9  1  0
  8 10  1  0
 10 11  2  0
 11 12  1  0
 12 13  1  0
 13 14  2  0
 14 15  1  0
 15 16  2  0
 16 17  1  0
 17 18  1  0
 17 19  2  0
 11 20  1  0
 20 21  2  0
 21  3  1  0
 20  6  1  0
 19 13  1  0
  1 22  1  0
  1 23  1  0
  1 24  1  0
  4 25  1  0
  5 26  1  0
  9 27  1  0
  9 28  1  0
  9 29  1  0
 10 30  1  0
 12 31  1  0
 14 32  1  0
 15 33  1  0
 16 34  1  0
 18 35  1  0
 19 36  1  0
 21 37  1  0
M  END
>  <Batch_No>  (227) 
STK545948

>  <EC50_nM>  (227) 
969

>  <Set>  (227) 
Drug-like

>  <Molecular_Weight>  (227) 
280.32113

>  <ALogP>  (227) 
3.59

$$$$
MMV007363
     RDKit          3D

 29 31  0  0  0  0  0  0  0  0999 V2000
    5.1518    2.0001   -0.7644 Cl  0  0  0  0  0  0  0  0  0  0  0  0
    3.6238    1.1834   -0.5174 C   0  0  0  0  0  0  0  0  0  0  0  0
    2.4119    1.8447   -0.7013 C   0  0  0  0  0  0  0  0  0  0  0  0
    1.2379    1.1509   -0.4923 C   0  0  0  0  0  0  0  0  0  0  0  0
    1.2915   -0.1715   -0.1093 C   0  0  0  0  0  0  0  0  0  0  0  0
    0.1143   -0.8530    0.0985 C   0  0  0  0  0  0  0  0  0  0  0  0
    0.2047   -2.1904    0.4888 C   0  0  0  0  0  0  0  0  0  0  0  0
    1.4171   -2.8033    0.6590 C   0  0  0  0  0  0  0  0  0  0  0  0
    2.5624   -2.1074    0.4469 N   0  0  0  0  0  0  0  0  0  0  0  0
    2.5007   -0.8223    0.0718 C   0  0  0  0  0  0  0  0  0  0  0  0
    3.6746   -0.1413   -0.1334 C   0  0  0  0  0  0  0  0  0  0  0  0
   -1.1735   -0.3131   -0.0600 N   0  0  0  0  0  0  0  0  0  0  0  0
   -1.8657    0.2076   -1.2186 C   0  0  0  0  0  0  0  0  0  0  0  0
   -2.6835    1.3382   -0.6098 C   0  0  0  0  0  0  0  0  0  0  0  0
   -3.3273    0.5241    0.5213 C   0  0  0  0  0  0  0  0  0  0  0  0
   -2.1148   -0.1841    1.0622 C   0  0  0  0  0  0  0  0  0  0  0  0
    2.4355    2.8850   -1.0032 H   0  0  0  0  0  0  0  0  0  0  0  0
    0.3058    1.6362   -0.6237 H   0  0  0  0  0  0  0  0  0  0  0  0
   -0.7012   -2.7577    0.6615 H   0  0  0  0  0  0  0  0  0  0  0  0
    1.5212   -3.8382    0.9608 H   0  0  0  0  0  0  0  0  0  0  0  0
    4.6238   -0.6720    0.0143 H   0  0  0  0  0  0  0  0  0  0  0  0
   -2.6410   -0.5443   -1.5337 H   0  0  0  0  0  0  0  0  0  0  0  0
   -1.2252    0.5119   -2.0474 H   0  0  0  0  0  0  0  0  0  0  0  0
   -3.4476    1.7263   -1.2955 H   0  0  0  0  0  0  0  0  0  0  0  0
   -2.0035    2.0996   -0.2169 H   0  0  0  0  0  0  0  0  0  0  0  0
   -4.0099   -0.1819   -0.0164 H   0  0  0  0  0  0  0  0  0  0  0  0
   -3.8383    1.1672    1.2389 H   0  0  0  0  0  0  0  0  0  0  0  0
   -2.3473   -1.1566    1.5211 H   0  0  0  0  0  0  0  0  0  0  0  0
   -1.6985    0.4620    1.8565 H   0  0  0  0  0  0  0  0  0  0  0  0
  1  2  1  0
  2  3  2  0
  3  4  1  0
  4  5  2  0
  5  6  1  0
  6  7  2  0
  7  8  1  0
  8  9  2  0
  9 10  1  0
 10 11  2  0
  6 12  1  0
 12 13  1  0
 13 14  1  0
 14 15  1  0
 15 16  1  0
 11  2  1  0
 10  5  1  0
 16 12  1  0
  3 17  1  0
  4 18  1  0
  7 19  1  0
  8 20  1  0
 11 21  1  0
 13 22  1  0
 13 23  1  0
 14 24  1  0
 14 25  1  0
 15 26  1  0
 15 27  1  0
 16 28  1  0
 16 29  1  0
M  END
>  <Batch_No>  (228) 
STK171905

>  <EC50_nM>  (228) 
944

>  <Set>  (228) 
Drug-like

>  <Molecular_Weight>  (228) 
232.70872

>  <ALogP>  (228) 
3.303

$$$$
MMV007791
     RDKit          3D

 49 51  0  0  0  0  0  0  0  0999 V2000
    5.8788    2.5701    0.5728 C   0  0  0  0  0  0  0  0  0  0  0  0
    5.1680    1.9383   -0.5862 C   0  0  0  0  0  0  0  0  0  0  0  0
    4.1593    1.0550   -0.2713 O   0  0  0  0  0  0  0  0  0  0  0  0
    4.1254   -0.1183    0.3869 C   0  0  0  0  0  0  0  0  0  0  0  0
    5.2555   -0.7582    0.9405 C   0  0  0  0  0  0  0  0  0  0  0  0
    5.1230   -1.9681    1.5981 C   0  0  0  0  0  0  0  0  0  0  0  0
    3.9070   -2.6074    1.7503 C   0  0  0  0  0  0  0  0  0  0  0  0
    2.8154   -1.9860    1.2147 C   0  0  0  0  0  0  0  0  0  0  0  0
    2.9287   -0.7752    0.5528 C   0  0  0  0  0  0  0  0  0  0  0  0
    1.7151   -0.2217    0.0514 N   0  0  0  0  0  0  0  0  0  0  0  0
    1.5402    0.2481   -1.2745 C   0  0  0  0  0  0  0  0  0  0  0  0
    2.4956    0.2075   -2.1316 O   0  0  0  0  0  0  0  0  0  0  0  0
    0.2698    0.8236   -1.7834 C   0  0  0  0  0  0  0  0  0  0  0  0
   -0.7159    0.7052   -0.7174 N   0  0  0  0  0  0  0  0  0  0  0  0
   -1.8887    1.5126   -0.9935 C   0  0  0  0  0  0  0  0  0  0  0  0
   -3.1141    1.0285   -0.2783 C   0  0  0  0  0  0  0  0  0  0  0  0
   -3.4442   -0.3191   -0.7416 N   0  0  0  0  0  0  0  0  0  0  0  0
   -2.3373   -1.0178   -1.4004 C   0  0  0  0  0  0  0  0  0  0  0  0
   -1.1060   -0.6975   -0.5640 C   0  0  0  0  0  0  0  0  0  0  0  0
   -4.6800   -0.9431   -0.5762 C   0  0  0  0  0  0  0  0  0  0  0  0
   -4.8343   -2.1368   -1.0446 O   0  0  0  0  0  0  0  0  0  0  0  0
   -5.8551   -0.4011    0.0828 C   0  0  0  0  0  0  0  0  0  0  0  0
   -7.0204   -0.0887   -0.3226 O   0  0  0  0  0  0  0  0  0  0  0  0
   -7.8243    0.3759    0.5734 C   0  0  0  0  0  0  0  0  0  0  0  0
   -7.0542    0.3627    1.7546 C   0  0  0  0  0  0  0  0  0  0  0  0
   -5.7813   -0.1311    1.4831 C   0  0  0  0  0  0  0  0  0  0  0  0
    5.2381    2.6555    1.4591 H   0  0  0  0  0  0  0  0  0  0  0  0
    6.2067    3.6205    0.3264 H   0  0  0  0  0  0  0  0  0  0  0  0
    6.7564    1.9531    0.8305 H   0  0  0  0  0  0  0  0  0  0  0  0
    5.9711    1.4894   -1.2321 H   0  0  0  0  0  0  0  0  0  0  0  0
    4.7526    2.7844   -1.2066 H   0  0  0  0  0  0  0  0  0  0  0  0
    6.2268   -0.3165    0.8549 H   0  0  0  0  0  0  0  0  0  0  0  0
    6.0056   -2.4212    1.9987 H   0  0  0  0  0  0  0  0  0  0  0  0
    3.9082   -3.5401    2.2836 H   0  0  0  0  0  0  0  0  0  0  0  0
    1.8469   -2.4787    1.3306 H   0  0  0  0  0  0  0  0  0  0  0  0
    0.9278   -0.1615    0.7295 H   0  0  0  0  0  0  0  0  0  0  0  0
   -0.1083    0.2832   -2.6448 H   0  0  0  0  0  0  0  0  0  0  0  0
    0.4348    1.9040   -1.9509 H   0  0  0  0  0  0  0  0  0  0  0  0
   -1.6405    2.5084   -0.5090 H   0  0  0  0  0  0  0  0  0  0  0  0
   -2.0401    1.7416   -2.0621 H   0  0  0  0  0  0  0  0  0  0  0  0
   -2.9010    1.0280    0.8038 H   0  0  0  0  0  0  0  0  0  0  0  0
   -3.9442    1.7268   -0.5349 H   0  0  0  0  0  0  0  0  0  0  0  0
   -2.2107   -0.5933   -2.3944 H   0  0  0  0  0  0  0  0  0  0  0  0
   -2.4923   -2.1059   -1.4005 H   0  0  0  0  0  0  0  0  0  0  0  0
   -1.2819   -0.9138    0.4947 H   0  0  0  0  0  0  0  0  0  0  0  0
   -0.2689   -1.3082   -0.9225 H   0  0  0  0  0  0  0  0  0  0  0  0
   -8.8269    0.7229    0.5981 H   0  0  0  0  0  0  0  0  0  0  0  0
   -7.3451    0.6719    2.7438 H   0  0  0  0  0  0  0  0  0  0  0  0
   -4.9410   -0.2779    2.1283 H   0  0  0  0  0  0  0  0  0  0  0  0
  1  2  1  0
  2  3  1  0
  3  4  1  0
  4  5  2  0
  5  6  1  0
  6  7  2  0
  7  8  1  0
  8  9  2  0
  9 10  1  0
 10 11  1  0
 11 12  2  0
 11 13  1  0
 13 14  1  0
 14 15  1  0
 15 16  1  0
 16 17  1  0
 17 18  1  0
 18 19  1  0
 17 20  1  0
 20 21  2  0
 20 22  1  0
 22 23  1  0
 23 24  1  0
 24 25  2  0
 25 26  1  0
  9  4  1  0
 19 14  1  0
 26 22  2  0
  1 27  1  0
  1 28  1  0
  1 29  1  0
  2 30  1  0
  2 31  1  0
  5 32  1  0
  6 33  1  0
  7 34  1  0
  8 35  1  0
 10 36  1  0
 13 37  1  0
 13 38  1  0
 15 39  1  0
 15 40  1  0
 16 41  1  0
 16 42  1  0
 18 43  1  0
 18 44  1  0
 19 45  1  0
 19 46  1  0
 24 47  1  0
 25 48  1  0
 26 49  1  0
M  END
>  <Batch_No>  (229) 
STK478956

>  <EC50_nM>  (229) 
ND

>  <Set>  (229) 
Drug-like

>  <Molecular_Weight>  (229) 
357.40362

>  <ALogP>  (229) 
1.565

$$$$
MMV665843
     RDKit          3D

 28 30  0  0  0  0  0  0  0  0999 V2000
    0.4490   -2.5494    0.6018 O   0  0  0  0  0  0  0  0  0  0  0  0
    0.4328   -1.1750    0.4136 C   0  0  0  0  0  0  0  0  0  0  0  0
   -0.7320   -0.4622    0.3376 C   0  0  0  0  0  0  0  0  0  0  0  0
   -2.0417   -1.1476    0.4559 C   0  0  0  0  0  0  0  0  0  0  0  0
   -3.1701   -0.4333   -0.1933 C   0  0  0  0  0  0  0  0  0  0  0  0
   -3.1830    1.0418   -0.0318 C   0  0  0  0  0  0  0  0  0  0  0  0
   -1.8912    1.7441    0.0566 C   0  0  0  0  0  0  0  0  0  0  0  0
   -0.6944    0.8816    0.1526 C   0  0  0  0  0  0  0  0  0  0  0  0
    0.5071    1.4795    0.0482 N   0  0  0  0  0  0  0  0  0  0  0  0
    1.6611    0.8098    0.1186 C   0  0  0  0  0  0  0  0  0  0  0  0
    2.8492    1.4844    0.0039 C   0  0  0  0  0  0  0  0  0  0  0  0
    4.0487    0.8039    0.0749 C   0  0  0  0  0  0  0  0  0  0  0  0
    4.0519   -0.5745    0.2639 C   0  0  0  0  0  0  0  0  0  0  0  0
    2.8441   -1.2602    0.3804 C   0  0  0  0  0  0  0  0  0  0  0  0
    1.6727   -0.5495    0.3048 C   0  0  0  0  0  0  0  0  0  0  0  0
    0.2921   -3.0998   -0.2554 H   0  0  0  0  0  0  0  0  0  0  0  0
   -1.9320   -2.1386   -0.0329 H   0  0  0  0  0  0  0  0  0  0  0  0
   -2.2949   -1.3715    1.5185 H   0  0  0  0  0  0  0  0  0  0  0  0
   -3.2763   -0.7531   -1.2574 H   0  0  0  0  0  0  0  0  0  0  0  0
   -4.1088   -0.8329    0.2922 H   0  0  0  0  0  0  0  0  0  0  0  0
   -3.8265    1.3337    0.8504 H   0  0  0  0  0  0  0  0  0  0  0  0
   -3.7481    1.4700   -0.9041 H   0  0  0  0  0  0  0  0  0  0  0  0
   -1.8630    2.4421    0.9262 H   0  0  0  0  0  0  0  0  0  0  0  0
   -1.6938    2.4066   -0.8366 H   0  0  0  0  0  0  0  0  0  0  0  0
    2.8459    2.5584   -0.1433 H   0  0  0  0  0  0  0  0  0  0  0  0
    4.9854    1.3332   -0.0151 H   0  0  0  0  0  0  0  0  0  0  0  0
    5.0018   -1.1125    0.3199 H   0  0  0  0  0  0  0  0  0  0  0  0
    2.8139   -2.3289    0.5275 H   0  0  0  0  0  0  0  0  0  0  0  0
  1  2  1  0
  2  3  2  0
  3  4  1  0
  4  5  1  0
  5  6  1  0
  6  7  1  0
  7  8  1  0
  8  9  2  0
  9 10  1  0
 10 11  2  0
 11 12  1  0
 12 13  2  0
 13 14  1  0
 14 15  2  0
 15  2  1  0
  8  3  1  0
 15 10  1  0
  1 16  1  0
  4 17  1  0
  4 18  1  0
  5 19  1  0
  5 20  1  0
  6 21  1  0
  6 22  1  0
  7 23  1  0
  7 24  1  0
 11 25  1  0
 12 26  1  0
 13 27  1  0
 14 28  1  0
M  END
>  <Batch_No>  (230) 
OSSL_050310

>  <EC50_nM>  (230) 
ND

>  <Set>  (230) 
Drug-like

>  <Molecular_Weight>  (230) 
199.24842

>  <ALogP>  (230) 
3.294

$$$$
MMV396595
     RDKit          3D

 56 59  0  0  0  0  0  0  0  0999 V2000
    2.8446    0.0162    0.9200 N   0  0  0  0  0  0  0  0  0  0  0  0
    2.9266   -0.8303   -0.1308 C   0  0  0  0  0  0  0  0  0  0  0  0
    4.2479   -1.0614   -0.4594 C   0  0  0  0  0  0  0  0  0  0  0  0
    4.9769   -0.3045    0.4549 C   0  0  0  0  0  0  0  0  0  0  0  0
    6.4605   -0.2789    0.4403 C   0  0  0  0  0  0  0  0  0  0  0  0
    6.8822    0.8567   -0.4775 C   0  0  0  0  0  0  0  0  0  0  0  0
    6.9518   -0.0237    1.8599 C   0  0  0  0  0  0  0  0  0  0  0  0
    7.0532   -1.5659   -0.0447 C   0  0  0  0  0  0  0  0  0  0  0  0
    4.1047    0.3170    1.2522 N   0  0  0  0  0  0  0  0  0  0  0  0
    1.8221   -1.3340   -0.7196 N   0  0  0  0  0  0  0  0  0  0  0  0
    0.6515   -0.9653   -0.2258 C   0  0  0  0  0  0  0  0  0  0  0  0
   -0.6340   -1.4791   -0.8311 C   0  0  0  0  0  0  0  0  0  0  0  0
   -1.5043   -0.2139   -0.8555 C   0  0  0  0  0  0  0  0  0  0  0  0
   -1.9137    0.1239    0.4680 N   0  0  0  0  0  0  0  0  0  0  0  0
   -2.6973    1.3392    0.5183 C   0  0  0  0  0  0  0  0  0  0  0  0
   -3.9308    1.3156   -0.2636 C   0  0  0  0  0  0  0  0  0  0  0  0
   -3.9380    2.0024   -1.4846 C   0  0  0  0  0  0  0  0  0  0  0  0
   -5.0511    2.0378   -2.2949 C   0  0  0  0  0  0  0  0  0  0  0  0
   -6.2080    1.3894   -1.9228 C   0  0  0  0  0  0  0  0  0  0  0  0
   -6.2137    0.7078   -0.7191 C   0  0  0  0  0  0  0  0  0  0  0  0
   -5.0935    0.6635    0.1109 C   0  0  0  0  0  0  0  0  0  0  0  0
   -5.0855   -0.0089    1.3072 O   0  0  0  0  0  0  0  0  0  0  0  0
   -6.1386   -0.7250    1.8688 C   0  0  0  0  0  0  0  0  0  0  0  0
   -6.5952   -1.8624    0.9916 C   0  0  0  0  0  0  0  0  0  0  0  0
    0.4877   -0.1070    0.8425 C   0  0  0  0  0  0  0  0  0  0  0  0
   -0.8198    0.3001    1.3924 C   0  0  0  0  0  0  0  0  0  0  0  0
    1.6347    0.3901    1.4215 C   0  0  0  0  0  0  0  0  0  0  0  0
    1.6332    1.2511    2.4880 O   0  0  0  0  0  0  0  0  0  0  0  0
    4.6551   -1.6936   -1.2557 H   0  0  0  0  0  0  0  0  0  0  0  0
    6.8132    0.4604   -1.5071 H   0  0  0  0  0  0  0  0  0  0  0  0
    6.1722    1.6960   -0.3696 H   0  0  0  0  0  0  0  0  0  0  0  0
    7.8973    1.2044   -0.2712 H   0  0  0  0  0  0  0  0  0  0  0  0
    7.9353   -0.4877    2.0302 H   0  0  0  0  0  0  0  0  0  0  0  0
    6.9682    1.0715    2.0802 H   0  0  0  0  0  0  0  0  0  0  0  0
    6.2406   -0.5198    2.5550 H   0  0  0  0  0  0  0  0  0  0  0  0
    8.0840   -1.6694    0.3717 H   0  0  0  0  0  0  0  0  0  0  0  0
    6.4272   -2.3937    0.3544 H   0  0  0  0  0  0  0  0  0  0  0  0
    7.0675   -1.5748   -1.1555 H   0  0  0  0  0  0  0  0  0  0  0  0
   -1.0585   -2.2254   -0.1246 H   0  0  0  0  0  0  0  0  0  0  0  0
   -0.4980   -1.8890   -1.8300 H   0  0  0  0  0  0  0  0  0  0  0  0
   -2.3326   -0.4393   -1.5183 H   0  0  0  0  0  0  0  0  0  0  0  0
   -0.8745    0.5984   -1.2580 H   0  0  0  0  0  0  0  0  0  0  0  0
   -2.9938    1.4724    1.5949 H   0  0  0  0  0  0  0  0  0  0  0  0
   -2.0622    2.1719    0.2207 H   0  0  0  0  0  0  0  0  0  0  0  0
   -3.0380    2.5225   -1.8014 H   0  0  0  0  0  0  0  0  0  0  0  0
   -4.9663    2.5987   -3.2288 H   0  0  0  0  0  0  0  0  0  0  0  0
   -7.0611    1.4396   -2.5858 H   0  0  0  0  0  0  0  0  0  0  0  0
   -7.1153    0.2122   -0.4448 H   0  0  0  0  0  0  0  0  0  0  0  0
   -6.9969   -0.0444    2.1358 H   0  0  0  0  0  0  0  0  0  0  0  0
   -5.7509   -1.1937    2.8197 H   0  0  0  0  0  0  0  0  0  0  0  0
   -7.6757   -1.7559    0.8002 H   0  0  0  0  0  0  0  0  0  0  0  0
   -6.4657   -2.8550    1.4760 H   0  0  0  0  0  0  0  0  0  0  0  0
   -6.0479   -1.8839    0.0279 H   0  0  0  0  0  0  0  0  0  0  0  0
   -0.9937   -0.3550    2.2988 H   0  0  0  0  0  0  0  0  0  0  0  0
   -0.7627    1.3357    1.7949 H   0  0  0  0  0  0  0  0  0  0  0  0
    1.5789    2.2466    2.2856 H   0  0  0  0  0  0  0  0  0  0  0  0
  1  2  1  0
  2  3  2  0
  3  4  1  0
  4  5  1  0
  5  6  1  0
  5  7  1  0
  5  8  1  0
  4  9  2  0
  2 10  1  0
 10 11  2  0
 11 12  1  0
 12 13  1  0
 13 14  1  0
 14 15  1  0
 15 16  1  0
 16 17  2  0
 17 18  1  0
 18 19  2  0
 19 20  1  0
 20 21  2  0
 21 22  1  0
 22 23  1  0
 23 24  1  0
 11 25  1  0
 25 26  1  0
 25 27  2  0
 27 28  1  0
  9  1  1  0
 27  1  1  0
 26 14  1  0
 21 16  1  0
  3 29  1  0
  6 30  1  0
  6 31  1  0
  6 32  1  0
  7 33  1  0
  7 34  1  0
  7 35  1  0
  8 36  1  0
  8 37  1  0
  8 38  1  0
 12 39  1  0
 12 40  1  0
 13 41  1  0
 13 42  1  0
 15 43  1  0
 15 44  1  0
 17 45  1  0
 18 46  1  0
 19 47  1  0
 20 48  1  0
 23 49  1  0
 23 50  1  0
 24 51  1  0
 24 52  1  0
 24 53  1  0
 26 54  1  0
 26 55  1  0
 28 56  1  0
M  END
>  <Batch_No>  (231) 
ADM 13808975

>  <EC50_nM>  (231) 
1010

>  <Set>  (231) 
Drug-like

>  <Molecular_Weight>  (231) 
380.48331

>  <ALogP>  (231) 
4.435

$$$$
MMV396669
     RDKit          3D

 57 60  0  0  0  0  0  0  0  0999 V2000
   -3.8957    0.2847    0.8596 N   0  0  0  0  0  0  0  0  0  0  0  0
   -4.9460   -0.1712    0.1456 C   0  0  0  0  0  0  0  0  0  0  0  0
   -5.0546   -1.5184   -0.1193 C   0  0  0  0  0  0  0  0  0  0  0  0
   -4.1126   -2.4488    0.3252 C   0  0  0  0  0  0  0  0  0  0  0  0
   -4.2600   -3.9014    0.0199 C   0  0  0  0  0  0  0  0  0  0  0  0
   -3.0882   -1.9435    1.0316 N   0  0  0  0  0  0  0  0  0  0  0  0
   -2.9986   -0.6117    1.2815 C   0  0  0  0  0  0  0  0  0  0  0  0
   -1.8259   -0.2520    2.0490 N   0  0  0  0  0  0  0  0  0  0  0  0
   -0.6075   -0.2059    1.3051 C   0  0  0  0  0  0  0  0  0  0  0  0
   -0.6485   -0.2341   -0.0697 C   0  0  0  0  0  0  0  0  0  0  0  0
    0.5302   -0.2375   -0.7738 C   0  0  0  0  0  0  0  0  0  0  0  0
    0.6090   -0.1798    1.9738 C   0  0  0  0  0  0  0  0  0  0  0  0
    1.7807   -0.1843    1.2057 C   0  0  0  0  0  0  0  0  0  0  0  0
    1.7849   -0.2137   -0.1587 C   0  0  0  0  0  0  0  0  0  0  0  0
    2.9053   -0.2640   -0.9991 N   0  0  0  0  0  0  0  0  0  0  0  0
    4.2604   -0.4128   -0.6171 C   0  0  0  0  0  0  0  0  0  0  0  0
    5.2795   -0.4482   -1.6604 C   0  0  0  0  0  0  0  0  0  0  0  0
    6.6763   -0.7280   -1.2666 C   0  0  0  0  0  0  0  0  0  0  0  0
    7.3228    0.1844   -0.3305 C   0  0  0  0  0  0  0  0  0  0  0  0
    7.4243   -0.0016    1.0326 C   0  0  0  0  0  0  0  0  0  0  0  0
    8.0370    0.9289    1.8466 C   0  0  0  0  0  0  0  0  0  0  0  0
    8.5722    2.0868    1.3136 C   0  0  0  0  0  0  0  0  0  0  0  0
    8.4844    2.2928   -0.0338 C   0  0  0  0  0  0  0  0  0  0  0  0
    7.8691    1.3517   -0.8316 C   0  0  0  0  0  0  0  0  0  0  0  0
    4.5514   -0.5133    0.5963 O   0  0  0  0  0  0  0  0  0  0  0  0
   -5.9666    0.6963   -0.3406 N   0  0  0  0  0  0  0  0  0  0  0  0
   -6.1049    2.1434   -0.1313 C   0  0  0  0  0  0  0  0  0  0  0  0
   -7.5848    2.2492    0.1811 C   0  0  0  0  0  0  0  0  0  0  0  0
   -8.2629    1.0536   -0.4527 C   0  0  0  0  0  0  0  0  0  0  0  0
   -7.1174    0.3515   -1.1559 C   0  0  0  0  0  0  0  0  0  0  0  0
   -5.8714   -1.9550   -0.6895 H   0  0  0  0  0  0  0  0  0  0  0  0
   -3.4869   -4.4276    0.6133 H   0  0  0  0  0  0  0  0  0  0  0  0
   -5.2895   -4.2585    0.2552 H   0  0  0  0  0  0  0  0  0  0  0  0
   -4.0052   -4.0588   -1.0689 H   0  0  0  0  0  0  0  0  0  0  0  0
   -1.8816   -0.0435    3.0706 H   0  0  0  0  0  0  0  0  0  0  0  0
   -1.5942   -0.2554   -0.5832 H   0  0  0  0  0  0  0  0  0  0  0  0
    0.4309   -0.2554   -1.8614 H   0  0  0  0  0  0  0  0  0  0  0  0
    0.6316   -0.1556    3.0546 H   0  0  0  0  0  0  0  0  0  0  0  0
    2.6910   -0.1605    1.7548 H   0  0  0  0  0  0  0  0  0  0  0  0
    2.7408   -0.1749   -2.0460 H   0  0  0  0  0  0  0  0  0  0  0  0
    5.2290    0.5240   -2.2030 H   0  0  0  0  0  0  0  0  0  0  0  0
    5.0171   -1.1996   -2.4741 H   0  0  0  0  0  0  0  0  0  0  0  0
    7.2842   -0.6752   -2.2256 H   0  0  0  0  0  0  0  0  0  0  0  0
    6.8135   -1.7809   -0.9155 H   0  0  0  0  0  0  0  0  0  0  0  0
    7.0400   -0.8894    1.4936 H   0  0  0  0  0  0  0  0  0  0  0  0
    8.1068    0.7613    2.9285 H   0  0  0  0  0  0  0  0  0  0  0  0
    9.0620    2.8485    1.9010 H   0  0  0  0  0  0  0  0  0  0  0  0
    8.9023    3.1978   -0.4479 H   0  0  0  0  0  0  0  0  0  0  0  0
    7.8250    1.5551   -1.8812 H   0  0  0  0  0  0  0  0  0  0  0  0
   -5.8581    2.7093   -1.0461 H   0  0  0  0  0  0  0  0  0  0  0  0
   -5.5357    2.5232    0.7139 H   0  0  0  0  0  0  0  0  0  0  0  0
   -8.0176    3.1830   -0.2368 H   0  0  0  0  0  0  0  0  0  0  0  0
   -7.7327    2.1798    1.2995 H   0  0  0  0  0  0  0  0  0  0  0  0
   -8.6946    0.3785    0.3452 H   0  0  0  0  0  0  0  0  0  0  0  0
   -9.0586    1.2971   -1.1531 H   0  0  0  0  0  0  0  0  0  0  0  0
   -7.3462   -0.7179   -1.2022 H   0  0  0  0  0  0  0  0  0  0  0  0
   -7.0153    0.6973   -2.2012 H   0  0  0  0  0  0  0  0  0  0  0  0
  1  2  2  0
  2  3  1  0
  3  4  2  0
  4  5  1  0
  4  6  1  0
  6  7  2  0
  7  8  1  0
  8  9  1  0
  9 10  2  0
 10 11  1  0
  9 12  1  0
 12 13  2  0
 13 14  1  0
 14 15  1  0
 15 16  1  0
 16 17  1  0
 17 18  1  0
 18 19  1  0
 19 20  2  0
 20 21  1  0
 21 22  2  0
 22 23  1  0
 23 24  2  0
 16 25  2  0
  2 26  1  0
 26 27  1  0
 27 28  1  0
 28 29  1  0
 29 30  1  0
  7  1  1  0
 14 11  2  0
 24 19  1  0
 30 26  1  0
  3 31  1  0
  5 32  1  0
  5 33  1  0
  5 34  1  0
  8 35  1  0
 10 36  1  0
 11 37  1  0
 12 38  1  0
 13 39  1  0
 15 40  1  0
 17 41  1  0
 17 42  1  0
 18 43  1  0
 18 44  1  0
 20 45  1  0
 21 46  1  0
 22 47  1  0
 23 48  1  0
 24 49  1  0
 27 50  1  0
 27 51  1  0
 28 52  1  0
 28 53  1  0
 29 54  1  0
 29 55  1  0
 30 56  1  0
 30 57  1  0
M  END
>  <Batch_No>  (232) 
G869-0502

>  <EC50_nM>  (232) 
1070

>  <Set>  (232) 
Drug-like

>  <Molecular_Weight>  (232) 
401.50407

>  <ALogP>  (232) 
3.585

$$$$
MMV396704
     RDKit          3D

 37 40  0  0  0  0  0  0  0  0999 V2000
    1.2035   -0.1524   -0.4673 C   0  0  0  0  0  0  0  0  0  0  0  0
    2.3995   -0.4855   -1.1144 C   0  0  0  0  0  0  0  0  0  0  0  0
    2.3336   -0.9282   -2.3832 N   0  0  0  0  0  0  0  0  0  0  0  0
    1.1556   -1.0507   -3.0208 C   0  0  0  0  0  0  0  0  0  0  0  0
    0.0393   -0.7271   -2.3806 N   0  0  0  0  0  0  0  0  0  0  0  0
   -0.0163   -0.2666   -1.0917 C   0  0  0  0  0  0  0  0  0  0  0  0
   -1.2614    0.0449   -0.5290 N   0  0  0  0  0  0  0  0  0  0  0  0
   -2.4429   -0.1957   -1.3990 C   0  0  0  0  0  0  0  0  0  0  0  0
   -3.3579   -1.0145   -0.4974 C   0  0  0  0  0  0  0  0  0  0  0  0
   -1.5674    0.5633    0.7563 C   0  0  0  0  0  0  0  0  0  0  0  0
   -3.0296    0.8752    0.9601 C   0  0  0  0  0  0  0  0  0  0  0  0
   -3.9347   -0.0810    0.4341 N   0  0  0  0  0  0  0  0  0  0  0  0
   -5.1267    0.5338   -0.1476 C   0  0  0  0  0  0  0  0  0  0  0  0
    3.4612   -0.2767   -0.2587 C   0  0  0  0  0  0  0  0  0  0  0  0
    2.9083    0.1827    0.9067 C   0  0  0  0  0  0  0  0  0  0  0  0
    3.7133    0.4910    1.9810 C   0  0  0  0  0  0  0  0  0  0  0  0
    5.0810    0.3303    1.8650 C   0  0  0  0  0  0  0  0  0  0  0  0
    5.6390   -0.1328    0.6902 C   0  0  0  0  0  0  0  0  0  0  0  0
    7.3900   -0.3376    0.5447 Cl  0  0  0  0  0  0  0  0  0  0  0  0
    4.8257   -0.4363   -0.3722 C   0  0  0  0  0  0  0  0  0  0  0  0
    1.5544    0.2419    0.7383 N   0  0  0  0  0  0  0  0  0  0  0  0
    1.0769   -1.4044   -4.0408 H   0  0  0  0  0  0  0  0  0  0  0  0
   -2.2006   -0.8128   -2.2632 H   0  0  0  0  0  0  0  0  0  0  0  0
   -2.9031    0.7902   -1.6488 H   0  0  0  0  0  0  0  0  0  0  0  0
   -4.1778   -1.4999   -1.0421 H   0  0  0  0  0  0  0  0  0  0  0  0
   -2.7533   -1.7497    0.0681 H   0  0  0  0  0  0  0  0  0  0  0  0
   -1.2387   -0.1444    1.5340 H   0  0  0  0  0  0  0  0  0  0  0  0
   -1.0441    1.5283    0.8818 H   0  0  0  0  0  0  0  0  0  0  0  0
   -3.2047    0.9564    2.0541 H   0  0  0  0  0  0  0  0  0  0  0  0
   -3.2854    1.8695    0.5362 H   0  0  0  0  0  0  0  0  0  0  0  0
   -5.2854    0.1861   -1.1980 H   0  0  0  0  0  0  0  0  0  0  0  0
   -6.0395    0.2828    0.4571 H   0  0  0  0  0  0  0  0  0  0  0  0
   -5.0242    1.6379   -0.1099 H   0  0  0  0  0  0  0  0  0  0  0  0
    3.2747    0.8504    2.8911 H   0  0  0  0  0  0  0  0  0  0  0  0
    5.6859    0.5802    2.7239 H   0  0  0  0  0  0  0  0  0  0  0  0
    5.2145   -0.8066   -1.3259 H   0  0  0  0  0  0  0  0  0  0  0  0
    0.9374    0.5579    1.4836 H   0  0  0  0  0  0  0  0  0  0  0  0
  1  2  1  0
  2  3  2  0
  3  4  1  0
  4  5  2  0
  5  6  1  0
  6  7  1  0
  7  8  1  0
  8  9  1  0
  7 10  1  0
 10 11  1  0
 11 12  1  0
 12 13  1  0
  2 14  1  0
 14 15  2  0
 15 16  1  0
 16 17  2  0
 17 18  1  0
 18 19  1  0
 18 20  2  0
 15 21  1  0
  6  1  2  0
 21  1  1  0
 12  9  1  0
 20 14  1  0
  4 22  1  0
  8 23  1  0
  8 24  1  0
  9 25  1  0
  9 26  1  0
 10 27  1  0
 10 28  1  0
 11 29  1  0
 11 30  1  0
 13 31  1  0
 13 32  1  0
 13 33  1  0
 16 34  1  0
 17 35  1  0
 20 36  1  0
 21 37  1  0
M  END
>  <Batch_No>  (233) 
STK547952

>  <EC50_nM>  (233) 
1190

>  <Set>  (233) 
Drug-like

>  <Molecular_Weight>  (233) 
301.77403

>  <ALogP>  (233) 
2.676

$$$$
MMV019762
     RDKit          3D

 43 46  0  0  0  0  0  0  0  0999 V2000
   -8.3299    0.6674    2.3192 C   0  0  0  0  0  0  0  0  0  0  0  0
   -6.9120    0.8079    2.4369 O   0  0  0  0  0  0  0  0  0  0  0  0
   -6.1717    0.3491    1.3447 C   0  0  0  0  0  0  0  0  0  0  0  0
   -6.8266   -0.1983    0.2443 C   0  0  0  0  0  0  0  0  0  0  0  0
   -6.0724   -0.6475   -0.8290 C   0  0  0  0  0  0  0  0  0  0  0  0
   -4.6960   -0.5457   -0.7898 C   0  0  0  0  0  0  0  0  0  0  0  0
   -4.0266   -0.0075    0.2889 C   0  0  0  0  0  0  0  0  0  0  0  0
   -4.7757    0.4396    1.3569 C   0  0  0  0  0  0  0  0  0  0  0  0
   -2.5746    0.1107    0.3539 C   0  0  0  0  0  0  0  0  0  0  0  0
   -2.0045    0.6185    1.3786 O   0  0  0  0  0  0  0  0  0  0  0  0
   -1.7179   -0.3163   -0.6837 N   0  0  0  0  0  0  0  0  0  0  0  0
   -0.2937   -0.2041   -0.6282 C   0  0  0  0  0  0  0  0  0  0  0  0
    0.4850   -1.2194   -0.1057 C   0  0  0  0  0  0  0  0  0  0  0  0
    1.8499   -1.0727   -0.0703 C   0  0  0  0  0  0  0  0  0  0  0  0
    2.5139    0.0454   -0.5316 C   0  0  0  0  0  0  0  0  0  0  0  0
    1.7246    1.0578   -1.0537 C   0  0  0  0  0  0  0  0  0  0  0  0
    0.3410    0.9473   -1.1070 C   0  0  0  0  0  0  0  0  0  0  0  0
    3.9526    0.1914   -0.4904 C   0  0  0  0  0  0  0  0  0  0  0  0
    4.7770   -0.7624    0.0074 N   0  0  0  0  0  0  0  0  0  0  0  0
    6.0402   -0.3020   -0.1083 C   0  0  0  0  0  0  0  0  0  0  0  0
    7.2577   -0.8480    0.2326 C   0  0  0  0  0  0  0  0  0  0  0  0
    8.4126   -0.1299   -0.0090 C   0  0  0  0  0  0  0  0  0  0  0  0
    8.3762    1.1199   -0.5830 C   0  0  0  0  0  0  0  0  0  0  0  0
    7.1670    1.6758   -0.9278 C   0  0  0  0  0  0  0  0  0  0  0  0
    6.0145    0.9576   -0.6860 C   0  0  0  0  0  0  0  0  0  0  0  0
    4.7143    1.2209   -0.9038 N   0  0  0  0  0  0  0  0  0  0  0  0
   -8.6256   -0.4122    2.2655 H   0  0  0  0  0  0  0  0  0  0  0  0
   -8.8095    1.1021    3.2144 H   0  0  0  0  0  0  0  0  0  0  0  0
   -8.6949    1.1726    1.4156 H   0  0  0  0  0  0  0  0  0  0  0  0
   -7.9040   -0.2819    0.2051 H   0  0  0  0  0  0  0  0  0  0  0  0
   -6.5562   -1.0766   -1.6956 H   0  0  0  0  0  0  0  0  0  0  0  0
   -4.1360   -0.9049   -1.6423 H   0  0  0  0  0  0  0  0  0  0  0  0
   -4.2856    0.8623    2.2088 H   0  0  0  0  0  0  0  0  0  0  0  0
   -2.1074   -0.7417   -1.5536 H   0  0  0  0  0  0  0  0  0  0  0  0
    0.0235   -2.1279    0.2750 H   0  0  0  0  0  0  0  0  0  0  0  0
    2.4216   -1.8944    0.3482 H   0  0  0  0  0  0  0  0  0  0  0  0
    2.1905    1.9449   -1.4242 H   0  0  0  0  0  0  0  0  0  0  0  0
   -0.2745    1.7581   -1.5238 H   0  0  0  0  0  0  0  0  0  0  0  0
    7.3531   -1.8290    0.6882 H   0  0  0  0  0  0  0  0  0  0  0  0
    9.3987   -0.5302    0.2479 H   0  0  0  0  0  0  0  0  0  0  0  0
    9.2938    1.6846   -0.7723 H   0  0  0  0  0  0  0  0  0  0  0  0
    7.1299    2.6532   -1.3773 H   0  0  0  0  0  0  0  0  0  0  0  0
    4.3578    2.1074   -1.3358 H   0  0  0  0  0  0  0  0  0  0  0  0
  1  2  1  0
  2  3  1  0
  3  4  2  0
  4  5  1  0
  5  6  2  0
  6  7  1  0
  7  8  2  0
  7  9  1  0
  9 10  2  0
  9 11  1  0
 11 12  1  0
 12 13  2  0
 13 14  1  0
 14 15  2  0
 15 16  1  0
 16 17  2  0
 15 18  1  0
 18 19  2  0
 19 20  1  0
 20 21  2  0
 21 22  1  0
 22 23  2  0
 23 24  1  0
 24 25  2  0
 25 26  1  0
  8  3  1  0
 17 12  1  0
 26 18  1  0
 25 20  1  0
  1 27  1  0
  1 28  1  0
  1 29  1  0
  4 30  1  0
  5 31  1  0
  6 32  1  0
  8 33  1  0
 11 34  1  0
 13 35  1  0
 14 36  1  0
 16 37  1  0
 17 38  1  0
 21 39  1  0
 22 40  1  0
 23 41  1  0
 24 42  1  0
 26 43  1  0
M  END
>  <Batch_No>  (234) 
STK391652

>  <EC50_nM>  (234) 
ND

>  <Set>  (234) 
Drug-like

>  <Molecular_Weight>  (234) 
343.37858

>  <ALogP>  (234) 
4.038

$$$$
MMV020505
     RDKit          3D

 41 42  0  0  0  0  0  0  0  0999 V2000
   -6.3907   -0.7456    1.0547 C   0  0  0  0  0  0  0  0  0  0  0  0
   -5.0685   -0.1731    0.8570 N   0  0  0  0  0  0  0  0  0  0  0  0
   -5.2176    1.2510    0.7373 C   0  0  0  0  0  0  0  0  0  0  0  0
   -4.4573   -0.7711   -0.3143 C   0  0  0  0  0  0  0  0  0  0  0  0
   -3.0812   -0.2603   -0.6079 C   0  0  0  0  0  0  0  0  0  0  0  0
   -2.1348   -0.5337    0.5406 C   0  0  0  0  0  0  0  0  0  0  0  0
   -0.8028   -0.0535    0.2842 N   0  0  0  0  0  0  0  0  0  0  0  0
   -0.1127   -0.7664   -0.7552 C   0  0  0  0  0  0  0  0  0  0  0  0
    1.2363   -0.1232   -0.8662 C   0  0  0  0  0  0  0  0  0  0  0  0
    2.3110   -0.4774   -0.2027 O   0  0  0  0  0  0  0  0  0  0  0  0
    3.3213    0.3071   -0.5481 C   0  0  0  0  0  0  0  0  0  0  0  0
    2.8630    1.2097   -1.4830 C   0  0  0  0  0  0  0  0  0  0  0  0
    1.5132    0.9465   -1.7026 C   0  0  0  0  0  0  0  0  0  0  0  0
    4.6717    0.2027   -0.0101 C   0  0  0  0  0  0  0  0  0  0  0  0
    4.9749   -0.7609    0.9278 C   0  0  0  0  0  0  0  0  0  0  0  0
    6.2500   -0.8677    1.4417 C   0  0  0  0  0  0  0  0  0  0  0  0
    7.2313   -0.0126    1.0232 C   0  0  0  0  0  0  0  0  0  0  0  0
    8.4858   -0.1199    1.5303 F   0  0  0  0  0  0  0  0  0  0  0  0
    6.9456    0.9729    0.0727 C   0  0  0  0  0  0  0  0  0  0  0  0
    8.2136    2.0804   -0.4707 Cl  0  0  0  0  0  0  0  0  0  0  0  0
    5.6563    1.0696   -0.4383 C   0  0  0  0  0  0  0  0  0  0  0  0
   -6.4590   -1.2558    2.0558 H   0  0  0  0  0  0  0  0  0  0  0  0
   -6.6807   -1.4290    0.2298 H   0  0  0  0  0  0  0  0  0  0  0  0
   -7.1610    0.0517    1.0916 H   0  0  0  0  0  0  0  0  0  0  0  0
   -5.3705    1.5745   -0.3271 H   0  0  0  0  0  0  0  0  0  0  0  0
   -6.1462    1.5426    1.2690 H   0  0  0  0  0  0  0  0  0  0  0  0
   -4.3935    1.8199    1.2279 H   0  0  0  0  0  0  0  0  0  0  0  0
   -5.0865   -0.7604   -1.2056 H   0  0  0  0  0  0  0  0  0  0  0  0
   -4.3423   -1.8583   -0.0352 H   0  0  0  0  0  0  0  0  0  0  0  0
   -3.1848    0.8348   -0.7962 H   0  0  0  0  0  0  0  0  0  0  0  0
   -2.7459   -0.6805   -1.5633 H   0  0  0  0  0  0  0  0  0  0  0  0
   -2.1029   -1.6209    0.7481 H   0  0  0  0  0  0  0  0  0  0  0  0
   -2.5200    0.0161    1.4233 H   0  0  0  0  0  0  0  0  0  0  0  0
   -0.2507   -0.1857    1.1609 H   0  0  0  0  0  0  0  0  0  0  0  0
    0.0813   -1.8421   -0.4690 H   0  0  0  0  0  0  0  0  0  0  0  0
   -0.6091   -0.8061   -1.7232 H   0  0  0  0  0  0  0  0  0  0  0  0
    3.4572    1.9882   -1.9611 H   0  0  0  0  0  0  0  0  0  0  0  0
    0.8628    1.4791   -2.3804 H   0  0  0  0  0  0  0  0  0  0  0  0
    4.2293   -1.4762    1.3034 H   0  0  0  0  0  0  0  0  0  0  0  0
    6.5287   -1.6169    2.1840 H   0  0  0  0  0  0  0  0  0  0  0  0
    5.4855    1.8504   -1.1723 H   0  0  0  0  0  0  0  0  0  0  0  0
  1  2  1  0
  2  3  1  0
  2  4  1  0
  4  5  1  0
  5  6  1  0
  6  7  1  0
  7  8  1  0
  8  9  1  0
  9 10  1  0
 10 11  1  0
 11 12  2  0
 12 13  1  0
 11 14  1  0
 14 15  2  0
 15 16  1  0
 16 17  2  0
 17 18  1  0
 17 19  1  0
 19 20  1  0
 19 21  2  0
 13  9  2  0
 21 14  1  0
  1 22  1  0
  1 23  1  0
  1 24  1  0
  3 25  1  0
  3 26  1  0
  3 27  1  0
  4 28  1  0
  4 29  1  0
  5 30  1  0
  5 31  1  0
  6 32  1  0
  6 33  1  0
  7 34  1  0
  8 35  1  0
  8 36  1  0
 12 37  1  0
 13 38  1  0
 15 39  1  0
 16 40  1  0
 21 41  1  0
M  END
>  <Batch_No>  (235) 
STK289812

>  <EC50_nM>  (235) 
875.5

>  <Set>  (235) 
Drug-like

>  <Molecular_Weight>  (235) 
310.7942

>  <ALogP>  (235) 
3.43

$$$$
MMV020942
     RDKit          3D

 38 39  0  0  0  0  0  0  0  0999 V2000
    7.5023    0.3751   -0.2425 C   0  0  0  0  0  0  0  0  0  0  0  0
    6.3530    1.3476   -0.0813 C   0  0  0  0  0  0  0  0  0  0  0  0
    5.1179    0.5851    0.2009 C   0  0  0  0  0  0  0  0  0  0  0  0
    5.2349   -0.6823    0.2547 O   0  0  0  0  0  0  0  0  0  0  0  0
    3.8645    1.2258    0.4020 N   0  0  0  0  0  0  0  0  0  0  0  0
    2.7389    0.3748    0.6685 C   0  0  0  0  0  0  0  0  0  0  0  0
    2.1265   -0.1504    1.5855 N   0  0  0  0  0  0  0  0  0  0  0  0
    1.0913   -0.8998    1.4200 N   0  0  0  0  0  0  0  0  0  0  0  0
    0.5761   -1.1964    0.3904 C   0  0  0  0  0  0  0  0  0  0  0  0
   -0.5289   -1.9599   -0.2608 C   0  0  0  0  0  0  0  0  0  0  0  0
   -1.7678   -1.1211   -0.3924 C   0  0  0  0  0  0  0  0  0  0  0  0
   -2.0078   -0.3426   -1.5059 C   0  0  0  0  0  0  0  0  0  0  0  0
   -3.1806    0.3888   -1.5198 C   0  0  0  0  0  0  0  0  0  0  0  0
   -4.0820    0.3488   -0.4669 C   0  0  0  0  0  0  0  0  0  0  0  0
   -5.2578    1.0860   -0.4878 O   0  0  0  0  0  0  0  0  0  0  0  0
   -5.5520    1.9015   -1.6076 C   0  0  0  0  0  0  0  0  0  0  0  0
   -3.8231   -0.4447    0.6526 C   0  0  0  0  0  0  0  0  0  0  0  0
   -4.7462   -0.4618    1.6888 O   0  0  0  0  0  0  0  0  0  0  0  0
   -4.4617   -1.2746    2.8145 C   0  0  0  0  0  0  0  0  0  0  0  0
   -2.6559   -1.1777    0.6753 C   0  0  0  0  0  0  0  0  0  0  0  0
    1.7230   -0.2546   -0.8068 S   0  0  0  0  0  0  0  0  0  0  0  0
    8.1389    0.6377   -1.0935 H   0  0  0  0  0  0  0  0  0  0  0  0
    7.0818   -0.6297   -0.4769 H   0  0  0  0  0  0  0  0  0  0  0  0
    8.1085    0.3331    0.7098 H   0  0  0  0  0  0  0  0  0  0  0  0
    6.5607    2.1236    0.6923 H   0  0  0  0  0  0  0  0  0  0  0  0
    6.2796    1.9122   -1.0483 H   0  0  0  0  0  0  0  0  0  0  0  0
    3.7875    2.2476    0.3553 H   0  0  0  0  0  0  0  0  0  0  0  0
   -0.7228   -2.9072    0.2828 H   0  0  0  0  0  0  0  0  0  0  0  0
   -0.2437   -2.2894   -1.2925 H   0  0  0  0  0  0  0  0  0  0  0  0
   -1.2968   -0.3211   -2.3187 H   0  0  0  0  0  0  0  0  0  0  0  0
   -3.3916    1.0046   -2.3777 H   0  0  0  0  0  0  0  0  0  0  0  0
   -6.3048    2.6499   -1.2263 H   0  0  0  0  0  0  0  0  0  0  0  0
   -5.8986    1.3555   -2.4837 H   0  0  0  0  0  0  0  0  0  0  0  0
   -4.6391    2.5223   -1.8176 H   0  0  0  0  0  0  0  0  0  0  0  0
   -5.3686   -1.3298    3.4771 H   0  0  0  0  0  0  0  0  0  0  0  0
   -4.2574   -2.2961    2.4331 H   0  0  0  0  0  0  0  0  0  0  0  0
   -3.6204   -0.8984    3.4217 H   0  0  0  0  0  0  0  0  0  0  0  0
   -2.4777   -1.7822    1.5490 H   0  0  0  0  0  0  0  0  0  0  0  0
  1  2  1  0
  2  3  1  0
  3  4  2  0
  3  5  1  0
  5  6  1  0
  6  7  2  0
  7  8  1  0
  8  9  2  0
  9 10  1  0
 10 11  1  0
 11 12  2  0
 12 13  1  0
 13 14  2  0
 14 15  1  0
 15 16  1  0
 14 17  1  0
 17 18  1  0
 18 19  1  0
 17 20  2  0
  9 21  1  0
 21  6  1  0
 20 11  1  0
  1 22  1  0
  1 23  1  0
  1 24  1  0
  2 25  1  0
  2 26  1  0
  5 27  1  0
 10 28  1  0
 10 29  1  0
 12 30  1  0
 13 31  1  0
 16 32  1  0
 16 33  1  0
 16 34  1  0
 19 35  1  0
 19 36  1  0
 19 37  1  0
 20 38  1  0
M  END
>  <Batch_No>  (236) 
STK386015

>  <EC50_nM>  (236) 
ND

>  <Set>  (236) 
Drug-like

>  <Molecular_Weight>  (236) 
307.36808

>  <ALogP>  (236) 
2.018

$$$$
MMV000839
     RDKit          3D

 47 50  0  0  0  0  0  0  0  0999 V2000
    0.4992    2.2380   -0.5882 O   0  0  0  0  0  0  0  0  0  0  0  0
   -0.2402    1.2815    0.0902 C   0  0  0  0  0  0  0  0  0  0  0  0
   -1.5345    1.8451    0.6057 C   0  0  0  0  0  0  0  0  0  0  0  0
   -2.3774    2.3558   -0.4516 N   0  0  0  0  0  0  0  0  0  0  0  0
   -2.9054    1.3259   -1.3117 C   0  0  0  0  0  0  0  0  0  0  0  0
   -3.7547    0.3401   -0.6096 C   0  0  0  0  0  0  0  0  0  0  0  0
   -5.1118    0.6173   -0.5119 C   0  0  0  0  0  0  0  0  0  0  0  0
   -6.0043   -0.2246    0.1164 C   0  0  0  0  0  0  0  0  0  0  0  0
   -5.5147   -1.3973    0.6721 C   0  0  0  0  0  0  0  0  0  0  0  0
   -4.1578   -1.6712    0.5725 C   0  0  0  0  0  0  0  0  0  0  0  0
   -3.2901   -0.8264   -0.0529 C   0  0  0  0  0  0  0  0  0  0  0  0
    0.5853    0.6673    1.2036 C   0  0  0  0  0  0  0  0  0  0  0  0
    1.7767    0.0252    0.6979 N   0  0  0  0  0  0  0  0  0  0  0  0
    2.9637    0.6615    0.5370 C   0  0  0  0  0  0  0  0  0  0  0  0
    3.3437    1.9649    0.7766 C   0  0  0  0  0  0  0  0  0  0  0  0
    4.6487    2.3780    0.5225 C   0  0  0  0  0  0  0  0  0  0  0  0
    5.5826    1.4641    0.0203 C   0  0  0  0  0  0  0  0  0  0  0  0
    5.2080    0.1459   -0.2246 C   0  0  0  0  0  0  0  0  0  0  0  0
    3.9045   -0.2337    0.0380 C   0  0  0  0  0  0  0  0  0  0  0  0
    3.2262   -1.4314   -0.0910 C   0  0  0  0  0  0  0  0  0  0  0  0
    3.6451   -2.6687   -0.5347 C   0  0  0  0  0  0  0  0  0  0  0  0
    2.7475   -3.7398   -0.5685 C   0  0  0  0  0  0  0  0  0  0  0  0
    1.4309   -3.5817   -0.1605 C   0  0  0  0  0  0  0  0  0  0  0  0
    1.0268   -2.3334    0.2820 C   0  0  0  0  0  0  0  0  0  0  0  0
    1.9030   -1.2670    0.3203 C   0  0  0  0  0  0  0  0  0  0  0  0
    0.5503    2.0375   -1.5570 H   0  0  0  0  0  0  0  0  0  0  0  0
   -0.4800    0.4666   -0.6186 H   0  0  0  0  0  0  0  0  0  0  0  0
   -1.3424    2.6372    1.3444 H   0  0  0  0  0  0  0  0  0  0  0  0
   -2.1542    1.0601    1.1163 H   0  0  0  0  0  0  0  0  0  0  0  0
   -3.2200    2.7769    0.0293 H   0  0  0  0  0  0  0  0  0  0  0  0
   -3.5312    1.8093   -2.1065 H   0  0  0  0  0  0  0  0  0  0  0  0
   -2.0747    0.7800   -1.8343 H   0  0  0  0  0  0  0  0  0  0  0  0
   -5.5140    1.5395   -0.9444 H   0  0  0  0  0  0  0  0  0  0  0  0
   -7.0406    0.0467    0.1587 H   0  0  0  0  0  0  0  0  0  0  0  0
   -6.1815   -2.0881    1.1745 H   0  0  0  0  0  0  0  0  0  0  0  0
   -3.8169   -2.5998    1.0215 H   0  0  0  0  0  0  0  0  0  0  0  0
   -2.2438   -1.0635   -0.1155 H   0  0  0  0  0  0  0  0  0  0  0  0
    0.0037   -0.0900    1.7589 H   0  0  0  0  0  0  0  0  0  0  0  0
    0.8644    1.4586    1.9132 H   0  0  0  0  0  0  0  0  0  0  0  0
    2.6578    2.6922    1.1602 H   0  0  0  0  0  0  0  0  0  0  0  0
    4.9239    3.4108    0.7198 H   0  0  0  0  0  0  0  0  0  0  0  0
    6.5951    1.8045   -0.1720 H   0  0  0  0  0  0  0  0  0  0  0  0
    5.9396   -0.5584   -0.6157 H   0  0  0  0  0  0  0  0  0  0  0  0
    4.6672   -2.7810   -0.8495 H   0  0  0  0  0  0  0  0  0  0  0  0
    3.0684   -4.7287   -0.9195 H   0  0  0  0  0  0  0  0  0  0  0  0
    0.7165   -4.3960   -0.1775 H   0  0  0  0  0  0  0  0  0  0  0  0
    0.0114   -2.1499    0.6124 H   0  0  0  0  0  0  0  0  0  0  0  0
  1  2  1  0
  2  3  1  0
  3  4  1  0
  4  5  1  0
  5  6  1  0
  6  7  2  0
  7  8  1  0
  8  9  2  0
  9 10  1  0
 10 11  2  0
  2 12  1  0
 12 13  1  0
 13 14  1  0
 14 15  2  0
 15 16  1  0
 16 17  2  0
 17 18  1  0
 18 19  2  0
 19 20  1  0
 20 21  2  0
 21 22  1  0
 22 23  2  0
 23 24  1  0
 24 25  2  0
 11  6  1  0
 25 13  1  0
 19 14  1  0
 25 20  1  0
  1 26  1  0
  2 27  1  0
  3 28  1  0
  3 29  1  0
  4 30  1  0
  5 31  1  0
  5 32  1  0
  7 33  1  0
  8 34  1  0
  9 35  1  0
 10 36  1  0
 11 37  1  0
 12 38  1  0
 12 39  1  0
 15 40  1  0
 16 41  1  0
 17 42  1  0
 18 43  1  0
 21 44  1  0
 22 45  1  0
 23 46  1  0
 24 47  1  0
M  END
>  <Batch_No>  (237) 
STK926895

>  <EC50_nM>  (237) 
1080

>  <Set>  (237) 
Drug-like

>  <Molecular_Weight>  (237) 
330.42288

>  <ALogP>  (237) 
4.204

$$$$
MMV666599
     RDKit          3D

 30 32  0  0  0  0  0  0  0  0999 V2000
    7.5610   -0.3741   -0.6212 Br  0  0  0  0  0  0  0  0  0  0  0  0
    5.6584   -0.3483   -0.5013 C   0  0  0  0  0  0  0  0  0  0  0  0
    5.0336    0.8549   -0.2244 C   0  0  0  0  0  0  0  0  0  0  0  0
    3.6486    0.8978   -0.1323 C   0  0  0  0  0  0  0  0  0  0  0  0
    2.8583   -0.2183   -0.3064 C   0  0  0  0  0  0  0  0  0  0  0  0
    1.4051   -0.1644   -0.2079 C   0  0  0  0  0  0  0  0  0  0  0  0
    0.7121    0.9085    0.0472 C   0  0  0  0  0  0  0  0  0  0  0  0
   -0.7473    0.9064    0.1349 C   0  0  0  0  0  0  0  0  0  0  0  0
   -1.4700    2.0095    0.3978 N   0  0  0  0  0  0  0  0  0  0  0  0
   -2.8011    1.9845    0.4732 C   0  0  0  0  0  0  0  0  0  0  0  0
   -3.4253    3.0306    0.7189 O   0  0  0  0  0  0  0  0  0  0  0  0
   -3.4626    0.7892    0.2754 C   0  0  0  0  0  0  0  0  0  0  0  0
   -4.8361    0.7568    0.3519 C   0  0  0  0  0  0  0  0  0  0  0  0
   -5.5107   -0.4426    0.1541 C   0  0  0  0  0  0  0  0  0  0  0  0
   -4.7575   -1.5753   -0.1166 C   0  0  0  0  0  0  0  0  0  0  0  0
   -3.3826   -1.5125   -0.1871 C   0  0  0  0  0  0  0  0  0  0  0  0
   -2.6931   -0.3206    0.0083 C   0  0  0  0  0  0  0  0  0  0  0  0
   -1.3864   -0.2440   -0.0553 O   0  0  0  0  0  0  0  0  0  0  0  0
    3.5077   -1.4030   -0.5810 C   0  0  0  0  0  0  0  0  0  0  0  0
    4.8849   -1.4751   -0.6785 C   0  0  0  0  0  0  0  0  0  0  0  0
    5.6436    1.7402   -0.0853 H   0  0  0  0  0  0  0  0  0  0  0  0
    3.2202    1.8653    0.0859 H   0  0  0  0  0  0  0  0  0  0  0  0
    0.8492   -1.0921   -0.3588 H   0  0  0  0  0  0  0  0  0  0  0  0
    1.1937    1.8666    0.2086 H   0  0  0  0  0  0  0  0  0  0  0  0
   -5.3629    1.6818    0.5676 H   0  0  0  0  0  0  0  0  0  0  0  0
   -6.5809   -0.4956    0.2082 H   0  0  0  0  0  0  0  0  0  0  0  0
   -5.3031   -2.4953   -0.2666 H   0  0  0  0  0  0  0  0  0  0  0  0
   -2.8252   -2.4141   -0.4000 H   0  0  0  0  0  0  0  0  0  0  0  0
    2.9544   -2.3234   -0.7306 H   0  0  0  0  0  0  0  0  0  0  0  0
    5.4139   -2.3938   -0.8931 H   0  0  0  0  0  0  0  0  0  0  0  0
  1  2  1  0
  2  3  2  0
  3  4  1  0
  4  5  2  0
  5  6  1  0
  6  7  2  3
  7  8  1  0
  8  9  2  0
  9 10  1  0
 10 11  2  0
 10 12  1  0
 12 13  2  0
 13 14  1  0
 14 15  2  0
 15 16  1  0
 16 17  2  0
 17 18  1  0
  5 19  1  0
 19 20  2  0
 20  2  1  0
 18  8  1  0
 17 12  1  0
  3 21  1  0
  4 22  1  0
  6 23  1  0
  7 24  1  0
 13 25  1  0
 14 26  1  0
 15 27  1  0
 16 28  1  0
 19 29  1  0
 20 30  1  0
M  END
>  <Batch_No>  (238) 
STK498500

>  <EC50_nM>  (238) 
ND

>  <Set>  (238) 
Drug-like

>  <Molecular_Weight>  (238) 
328.1601

>  <ALogP>  (238) 
4.357

$$$$
MMV000481
     RDKit          3D

 53 55  0  0  0  0  0  0  0  0999 V2000
    1.3040    0.5120   -2.7815 C   0  0  0  0  0  0  0  0  0  0  0  0
    1.5077   -0.9334   -3.0938 C   0  0  0  0  0  0  0  0  0  0  0  0
    2.5572   -1.5378   -2.3810 O   0  0  0  0  0  0  0  0  0  0  0  0
    2.6302   -1.6401   -0.9997 C   0  0  0  0  0  0  0  0  0  0  0  0
    1.6263   -1.1370   -0.1646 C   0  0  0  0  0  0  0  0  0  0  0  0
    1.7980   -1.2922    1.2020 C   0  0  0  0  0  0  0  0  0  0  0  0
    2.9079   -1.9150    1.7413 C   0  0  0  0  0  0  0  0  0  0  0  0
    3.8809   -2.4017    0.9165 C   0  0  0  0  0  0  0  0  0  0  0  0
    5.2921   -3.1958    1.6134 Cl  0  0  0  0  0  0  0  0  0  0  0  0
    3.7312   -2.2585   -0.4502 C   0  0  0  0  0  0  0  0  0  0  0  0
    4.7144   -2.7491   -1.2979 O   0  0  0  0  0  0  0  0  0  0  0  0
    0.7841   -0.7953    2.1835 C   0  0  0  0  0  0  0  0  0  0  0  0
    1.4134   -0.0862    3.2458 N   0  0  0  0  0  0  0  0  0  0  0  0
    1.4062    1.3328    3.1746 C   0  0  0  0  0  0  0  0  0  0  0  0
    1.0879    1.9312    1.8472 C   0  0  0  0  0  0  0  0  0  0  0  0
   -0.1653    1.3002    1.3580 C   0  0  0  0  0  0  0  0  0  0  0  0
   -1.1813    2.0055    0.7449 C   0  0  0  0  0  0  0  0  0  0  0  0
   -2.3329    1.3972    0.2974 C   0  0  0  0  0  0  0  0  0  0  0  0
   -3.3761    2.0491   -0.3212 O   0  0  0  0  0  0  0  0  0  0  0  0
   -3.3202    3.4296   -0.5575 C   0  0  0  0  0  0  0  0  0  0  0  0
   -2.1809    3.8070   -1.4736 C   0  0  0  0  0  0  0  0  0  0  0  0
   -2.5049    0.0067    0.4598 C   0  0  0  0  0  0  0  0  0  0  0  0
   -3.6646   -0.5816    0.0031 O   0  0  0  0  0  0  0  0  0  0  0  0
   -3.8619   -1.9608    0.1342 C   0  0  0  0  0  0  0  0  0  0  0  0
   -2.8004   -2.6903   -0.6462 C   0  0  0  0  0  0  0  0  0  0  0  0
   -1.4751   -0.6717    1.0760 C   0  0  0  0  0  0  0  0  0  0  0  0
   -0.3215   -0.0570    1.5224 C   0  0  0  0  0  0  0  0  0  0  0  0
    1.9555    0.8860   -1.9441 H   0  0  0  0  0  0  0  0  0  0  0  0
    1.6512    1.1202   -3.6613 H   0  0  0  0  0  0  0  0  0  0  0  0
    0.2485    0.7934   -2.6416 H   0  0  0  0  0  0  0  0  0  0  0  0
    0.5489   -1.4752   -2.8661 H   0  0  0  0  0  0  0  0  0  0  0  0
    1.7398   -1.0353   -4.1733 H   0  0  0  0  0  0  0  0  0  0  0  0
    0.7655   -0.6569   -0.5593 H   0  0  0  0  0  0  0  0  0  0  0  0
    3.0408   -2.0364    2.8180 H   0  0  0  0  0  0  0  0  0  0  0  0
    5.5453   -3.2183   -0.9626 H   0  0  0  0  0  0  0  0  0  0  0  0
    0.3141   -1.7146    2.6476 H   0  0  0  0  0  0  0  0  0  0  0  0
    1.1170   -0.4411    4.2017 H   0  0  0  0  0  0  0  0  0  0  0  0
    2.3615    1.7168    3.5851 H   0  0  0  0  0  0  0  0  0  0  0  0
    0.6246    1.7279    3.8881 H   0  0  0  0  0  0  0  0  0  0  0  0
    1.9059    1.8636    1.1040 H   0  0  0  0  0  0  0  0  0  0  0  0
    0.9583    3.0329    2.0194 H   0  0  0  0  0  0  0  0  0  0  0  0
   -1.0467    3.0556    0.6354 H   0  0  0  0  0  0  0  0  0  0  0  0
   -4.2992    3.8160   -0.9638 H   0  0  0  0  0  0  0  0  0  0  0  0
   -3.1858    4.0091    0.3863 H   0  0  0  0  0  0  0  0  0  0  0  0
   -1.5835    4.6353   -1.0450 H   0  0  0  0  0  0  0  0  0  0  0  0
   -1.5793    2.8908   -1.6561 H   0  0  0  0  0  0  0  0  0  0  0  0
   -2.6370    4.1693   -2.4309 H   0  0  0  0  0  0  0  0  0  0  0  0
   -4.8935   -2.2686   -0.1819 H   0  0  0  0  0  0  0  0  0  0  0  0
   -3.7900   -2.3110    1.1893 H   0  0  0  0  0  0  0  0  0  0  0  0
   -2.0393   -1.9924   -1.0531 H   0  0  0  0  0  0  0  0  0  0  0  0
   -3.2682   -3.1806   -1.5578 H   0  0  0  0  0  0  0  0  0  0  0  0
   -2.3682   -3.5210   -0.0483 H   0  0  0  0  0  0  0  0  0  0  0  0
   -1.5423   -1.7335    1.2427 H   0  0  0  0  0  0  0  0  0  0  0  0
  1  2  1  0
  2  3  1  0
  3  4  1  0
  4  5  2  0
  5  6  1  0
  6  7  2  0
  7  8  1  0
  8  9  1  0
  8 10  2  0
 10 11  1  0
  6 12  1  0
 12 13  1  0
 13 14  1  0
 14 15  1  0
 15 16  1  0
 16 17  2  0
 17 18  1  0
 18 19  1  0
 19 20  1  0
 20 21  1  0
 18 22  2  0
 22 23  1  0
 23 24  1  0
 24 25  1  0
 22 26  1  0
 26 27  2  0
 10  4  1  0
 27 12  1  0
 27 16  1  0
  1 28  1  0
  1 29  1  0
  1 30  1  0
  2 31  1  0
  2 32  1  0
  5 33  1  0
  7 34  1  0
 11 35  1  0
 12 36  1  0
 13 37  1  0
 14 38  1  0
 14 39  1  0
 15 40  1  0
 15 41  1  0
 17 42  1  0
 20 43  1  0
 20 44  1  0
 21 45  1  0
 21 46  1  0
 21 47  1  0
 24 48  1  0
 24 49  1  0
 25 50  1  0
 25 51  1  0
 25 52  1  0
 26 53  1  0
M  END
>  <Batch_No>  (239) 
STK766822

>  <EC50_nM>  (239) 
1330

>  <Set>  (239) 
Drug-like

>  <Molecular_Weight>  (239) 
391.88843

>  <ALogP>  (239) 
4.474

$$$$
MMV665897
     RDKit          3D

 25 26  0  0  0  0  0  0  0  0999 V2000
   -4.2660   -0.5665    0.4518 C   0  0  0  0  0  0  0  0  0  0  0  0
   -2.9553   -1.0734    0.4843 O   0  0  0  0  0  0  0  0  0  0  0  0
   -1.8245   -0.3314    0.1665 C   0  0  0  0  0  0  0  0  0  0  0  0
   -1.9352    0.9921   -0.2118 C   0  0  0  0  0  0  0  0  0  0  0  0
   -0.7842    1.7153   -0.5258 C   0  0  0  0  0  0  0  0  0  0  0  0
    0.4373    1.0576   -0.4411 C   0  0  0  0  0  0  0  0  0  0  0  0
    1.5223    1.8038   -0.7561 N   0  0  0  0  0  0  0  0  0  0  0  0
    2.7408    1.1956   -0.6857 C   0  0  0  0  0  0  0  0  0  0  0  0
    3.8588    2.0055   -1.0222 N   0  0  0  0  0  0  0  0  0  0  0  0
    2.8685   -0.0898   -0.3201 N   0  0  0  0  0  0  0  0  0  0  0  0
    1.7937   -0.8681    0.0033 C   0  0  0  0  0  0  0  0  0  0  0  0
    1.9493   -2.2710    0.4009 C   0  0  0  0  0  0  0  0  0  0  0  0
    0.5506   -0.2605   -0.0647 C   0  0  0  0  0  0  0  0  0  0  0  0
   -0.6032   -0.9626    0.2434 C   0  0  0  0  0  0  0  0  0  0  0  0
   -4.3442    0.5115    0.7157 H   0  0  0  0  0  0  0  0  0  0  0  0
   -4.6880   -0.7652   -0.5453 H   0  0  0  0  0  0  0  0  0  0  0  0
   -4.8359   -1.0887    1.2627 H   0  0  0  0  0  0  0  0  0  0  0  0
   -2.8637    1.5018   -0.2789 H   0  0  0  0  0  0  0  0  0  0  0  0
   -0.8531    2.7497   -0.8230 H   0  0  0  0  0  0  0  0  0  0  0  0
    3.8521    3.0245   -0.7790 H   0  0  0  0  0  0  0  0  0  0  0  0
    4.7105    1.6468   -1.5085 H   0  0  0  0  0  0  0  0  0  0  0  0
    3.0216   -2.4101    0.6810 H   0  0  0  0  0  0  0  0  0  0  0  0
    1.7908   -2.9679   -0.4520 H   0  0  0  0  0  0  0  0  0  0  0  0
    1.3766   -2.5478    1.3021 H   0  0  0  0  0  0  0  0  0  0  0  0
   -0.5195   -2.0014    0.5406 H   0  0  0  0  0  0  0  0  0  0  0  0
  1  2  1  0
  2  3  1  0
  3  4  2  0
  4  5  1  0
  5  6  2  0
  6  7  1  0
  7  8  2  0
  8  9  1  0
  8 10  1  0
 10 11  2  0
 11 12  1  0
 11 13  1  0
 13 14  2  0
 14  3  1  0
 13  6  1  0
  1 15  1  0
  1 16  1  0
  1 17  1  0
  4 18  1  0
  5 19  1  0
  9 20  1  0
  9 21  1  0
 12 22  1  0
 12 23  1  0
 12 24  1  0
 14 25  1  0
M  END
>  <Batch_No>  (240) 
OSSL_148109

>  <EC50_nM>  (240) 
ND

>  <Set>  (240) 
Drug-like

>  <Molecular_Weight>  (240) 
189.21383

>  <ALogP>  (240) 
1.428

$$$$
MMV665908
     RDKit          3D

 68 71  0  0  0  0  0  0  0  0999 V2000
    8.5977   -3.3217   -0.0165 C   0  0  0  0  0  0  0  0  0  0  0  0
    8.3435   -1.9351   -0.1665 O   0  0  0  0  0  0  0  0  0  0  0  0
    7.0701   -1.4226    0.0295 C   0  0  0  0  0  0  0  0  0  0  0  0
    6.8405   -0.0760   -0.1199 C   0  0  0  0  0  0  0  0  0  0  0  0
    5.5773    0.4598    0.0705 C   0  0  0  0  0  0  0  0  0  0  0  0
    4.4854   -0.3197    0.4180 C   0  0  0  0  0  0  0  0  0  0  0  0
    4.7465   -1.6788    0.5625 C   0  0  0  0  0  0  0  0  0  0  0  0
    6.0005   -2.2193    0.3748 C   0  0  0  0  0  0  0  0  0  0  0  0
    3.1914    0.1839    0.6169 N   0  0  0  0  0  0  0  0  0  0  0  0
    2.7766    1.5460    0.4259 C   0  0  0  0  0  0  0  0  0  0  0  0
    1.4728    1.7197   -0.2869 C   0  0  0  0  0  0  0  0  0  0  0  0
    0.4707    0.6826    0.0264 N   0  0  0  0  0  0  0  0  0  0  0  0
    0.9311    0.1154    1.2983 C   0  0  0  0  0  0  0  0  0  0  0  0
    2.1548   -0.7575    1.0691 C   0  0  0  0  0  0  0  0  0  0  0  0
   -0.8156    1.2671    0.2234 C   0  0  0  0  0  0  0  0  0  0  0  0
   -2.0230    0.4628    0.0156 C   0  0  0  0  0  0  0  0  0  0  0  0
   -2.3035   -0.7047    0.7514 N   0  0  0  0  0  0  0  0  0  0  0  0
   -3.5606   -1.3786    0.3974 C   0  0  0  0  0  0  0  0  0  0  0  0
   -4.2533   -0.8563   -0.5136 O   0  0  0  0  0  0  0  0  0  0  0  0
   -3.9443   -2.6170    1.1166 C   0  0  0  0  0  0  0  0  0  0  0  0
   -5.2856   -3.0425    0.5039 C   0  0  0  0  0  0  0  0  0  0  0  0
   -6.3201   -1.9478    0.7011 C   0  0  0  0  0  0  0  0  0  0  0  0
   -5.1329   -3.4000   -0.9393 C   0  0  0  0  0  0  0  0  0  0  0  0
   -5.8154   -4.2738    1.2363 C   0  0  0  0  0  0  0  0  0  0  0  0
   -0.9947    2.5073   -0.6319 C   0  0  0  0  0  0  0  0  0  0  0  0
   -0.7156    2.4887   -1.9826 C   0  0  0  0  0  0  0  0  0  0  0  0
   -0.8728    3.6287   -2.7663 C   0  0  0  0  0  0  0  0  0  0  0  0
   -1.3142    4.8030   -2.1976 C   0  0  0  0  0  0  0  0  0  0  0  0
   -1.5578    6.0674   -2.7250 O   0  0  0  0  0  0  0  0  0  0  0  0
   -2.0913    6.9049   -1.7143 C   0  0  0  0  0  0  0  0  0  0  0  0
   -2.0166    6.1185   -0.5375 O   0  0  0  0  0  0  0  0  0  0  0  0
   -1.5963    4.8348   -0.8519 C   0  0  0  0  0  0  0  0  0  0  0  0
   -1.4351    3.6965   -0.0891 C   0  0  0  0  0  0  0  0  0  0  0  0
    9.6420   -3.5076   -0.3127 H   0  0  0  0  0  0  0  0  0  0  0  0
    8.5187   -3.5435    1.0809 H   0  0  0  0  0  0  0  0  0  0  0  0
    7.9068   -3.9581   -0.5786 H   0  0  0  0  0  0  0  0  0  0  0  0
    7.6682    0.5955   -0.3952 H   0  0  0  0  0  0  0  0  0  0  0  0
    5.4745    1.5114   -0.0606 H   0  0  0  0  0  0  0  0  0  0  0  0
    3.9611   -2.3856    0.8339 H   0  0  0  0  0  0  0  0  0  0  0  0
    6.1968   -3.2788    0.4890 H   0  0  0  0  0  0  0  0  0  0  0  0
    2.8531    2.1651    1.3604 H   0  0  0  0  0  0  0  0  0  0  0  0
    3.5512    2.0461   -0.2432 H   0  0  0  0  0  0  0  0  0  0  0  0
    1.7120    1.5807   -1.3826 H   0  0  0  0  0  0  0  0  0  0  0  0
    1.0956    2.7366   -0.0667 H   0  0  0  0  0  0  0  0  0  0  0  0
    1.3320    0.9932    1.8959 H   0  0  0  0  0  0  0  0  0  0  0  0
    0.1888   -0.3278    1.9248 H   0  0  0  0  0  0  0  0  0  0  0  0
    2.4587   -1.1575    2.0473 H   0  0  0  0  0  0  0  0  0  0  0  0
    2.0008   -1.5445    0.3170 H   0  0  0  0  0  0  0  0  0  0  0  0
   -0.7924    1.6803    1.2815 H   0  0  0  0  0  0  0  0  0  0  0  0
   -2.9201    1.1725    0.1102 H   0  0  0  0  0  0  0  0  0  0  0  0
   -2.1411    0.1581   -1.0849 H   0  0  0  0  0  0  0  0  0  0  0  0
   -1.7945   -1.1761    1.4952 H   0  0  0  0  0  0  0  0  0  0  0  0
   -3.2300   -3.4365    0.9689 H   0  0  0  0  0  0  0  0  0  0  0  0
   -4.0499   -2.4684    2.1945 H   0  0  0  0  0  0  0  0  0  0  0  0
   -5.9461   -1.2268    1.4855 H   0  0  0  0  0  0  0  0  0  0  0  0
   -6.5693   -1.4341   -0.2508 H   0  0  0  0  0  0  0  0  0  0  0  0
   -7.2726   -2.3464    1.1089 H   0  0  0  0  0  0  0  0  0  0  0  0
   -5.3429   -2.5783   -1.6524 H   0  0  0  0  0  0  0  0  0  0  0  0
   -5.8198   -4.2246   -1.1760 H   0  0  0  0  0  0  0  0  0  0  0  0
   -4.0743   -3.7214   -1.0861 H   0  0  0  0  0  0  0  0  0  0  0  0
   -6.9230   -4.2367    1.1908 H   0  0  0  0  0  0  0  0  0  0  0  0
   -5.4253   -4.3453    2.2722 H   0  0  0  0  0  0  0  0  0  0  0  0
   -5.5394   -5.1856    0.6417 H   0  0  0  0  0  0  0  0  0  0  0  0
   -0.3785    1.6119   -2.4811 H   0  0  0  0  0  0  0  0  0  0  0  0
   -0.6506    3.6032   -3.8249 H   0  0  0  0  0  0  0  0  0  0  0  0
   -3.1602    7.1568   -1.8666 H   0  0  0  0  0  0  0  0  0  0  0  0
   -1.4781    7.8108   -1.5232 H   0  0  0  0  0  0  0  0  0  0  0  0
   -1.6623    3.7264    0.9885 H   0  0  0  0  0  0  0  0  0  0  0  0
  1  2  1  0
  2  3  1  0
  3  4  2  0
  4  5  1  0
  5  6  2  0
  6  7  1  0
  7  8  2  0
  6  9  1  0
  9 10  1  0
 10 11  1  0
 11 12  1  0
 12 13  1  0
 13 14  1  0
 12 15  1  0
 15 16  1  0
 16 17  1  0
 17 18  1  0
 18 19  2  0
 18 20  1  0
 20 21  1  0
 21 22  1  0
 21 23  1  0
 21 24  1  0
 15 25  1  0
 25 26  2  0
 26 27  1  0
 27 28  2  0
 28 29  1  0
 29 30  1  0
 30 31  1  0
 31 32  1  0
 32 33  2  0
  8  3  1  0
 14  9  1  0
 33 25  1  0
 32 28  1  0
  1 34  1  0
  1 35  1  0
  1 36  1  0
  4 37  1  0
  5 38  1  0
  7 39  1  0
  8 40  1  0
 10 41  1  0
 10 42  1  0
 11 43  1  0
 11 44  1  0
 13 45  1  0
 13 46  1  0
 14 47  1  0
 14 48  1  0
 15 49  1  0
 16 50  1  0
 16 51  1  0
 17 52  1  0
 20 53  1  0
 20 54  1  0
 22 55  1  0
 22 56  1  0
 22 57  1  0
 23 58  1  0
 23 59  1  0
 23 60  1  0
 24 61  1  0
 24 62  1  0
 24 63  1  0
 26 64  1  0
 27 65  1  0
 30 66  1  0
 30 67  1  0
 33 68  1  0
M  END
>  <Batch_No>  (241) 
F2573-0346

>  <EC50_nM>  (241) 
ND

>  <Set>  (241) 
Probe-like

>  <Molecular_Weight>  (241) 
453.57379

>  <ALogP>  (241) 
4.086

$$$$
MMV665924
     RDKit          3D

 35 37  0  0  0  0  0  0  0  0999 V2000
    6.5516   -1.0245    0.0321 C   0  0  0  0  0  0  0  0  0  0  0  0
    5.3238   -1.0914    0.6927 O   0  0  0  0  0  0  0  0  0  0  0  0
    4.1168   -0.6218    0.2403 C   0  0  0  0  0  0  0  0  0  0  0  0
    3.0062   -0.7786    1.0356 C   0  0  0  0  0  0  0  0  0  0  0  0
    1.7634   -0.3136    0.6082 C   0  0  0  0  0  0  0  0  0  0  0  0
    1.5625    0.3132   -0.5954 C   0  0  0  0  0  0  0  0  0  0  0  0
    2.7228    0.4549   -1.3811 C   0  0  0  0  0  0  0  0  0  0  0  0
    3.9511   -0.0025   -0.9632 C   0  0  0  0  0  0  0  0  0  0  0  0
    0.3189    0.8208   -1.1004 C   0  0  0  0  0  0  0  0  0  0  0  0
    0.3950    1.3622   -2.2907 O   0  0  0  0  0  0  0  0  0  0  0  0
   -1.0133    0.8488   -0.5413 C   0  0  0  0  0  0  0  0  0  0  0  0
   -1.1392    1.3593    0.8883 C   0  0  0  0  0  0  0  0  0  0  0  0
   -1.6331   -0.0120    0.4487 C   0  0  0  0  0  0  0  0  0  0  0  0
   -3.1491   -0.0800    0.4191 C   0  0  0  0  0  0  0  0  0  0  0  0
   -3.9038    0.9878   -0.0048 C   0  0  0  0  0  0  0  0  0  0  0  0
   -5.2862    0.9530   -0.0429 C   0  0  0  0  0  0  0  0  0  0  0  0
   -5.9423   -0.1867    0.3556 C   0  0  0  0  0  0  0  0  0  0  0  0
   -7.6953   -0.2961    0.3314 Cl  0  0  0  0  0  0  0  0  0  0  0  0
   -5.2066   -1.2730    0.7856 C   0  0  0  0  0  0  0  0  0  0  0  0
   -3.8259   -1.2120    0.8140 C   0  0  0  0  0  0  0  0  0  0  0  0
    7.3414   -0.9212    0.8286 H   0  0  0  0  0  0  0  0  0  0  0  0
    6.6735   -0.1132   -0.5938 H   0  0  0  0  0  0  0  0  0  0  0  0
    6.8260   -1.9458   -0.5168 H   0  0  0  0  0  0  0  0  0  0  0  0
    3.1074   -1.2727    2.0091 H   0  0  0  0  0  0  0  0  0  0  0  0
    0.9561   -0.4803    1.2881 H   0  0  0  0  0  0  0  0  0  0  0  0
    2.6959    0.9322   -2.3515 H   0  0  0  0  0  0  0  0  0  0  0  0
    4.8313    0.1252   -1.6009 H   0  0  0  0  0  0  0  0  0  0  0  0
   -1.7458    1.3293   -1.2871 H   0  0  0  0  0  0  0  0  0  0  0  0
   -1.9080    2.1716    1.0049 H   0  0  0  0  0  0  0  0  0  0  0  0
   -0.2761    1.4256    1.5460 H   0  0  0  0  0  0  0  0  0  0  0  0
   -1.2007   -0.9341    0.8390 H   0  0  0  0  0  0  0  0  0  0  0  0
   -3.4428    1.9092   -0.3286 H   0  0  0  0  0  0  0  0  0  0  0  0
   -5.8688    1.8053   -0.3805 H   0  0  0  0  0  0  0  0  0  0  0  0
   -5.6827   -2.1937    1.1095 H   0  0  0  0  0  0  0  0  0  0  0  0
   -3.2238   -2.0452    1.1453 H   0  0  0  0  0  0  0  0  0  0  0  0
  1  2  1  0
  2  3  1  0
  3  4  2  0
  4  5  1  0
  5  6  2  0
  6  7  1  0
  7  8  2  0
  6  9  1  0
  9 10  2  0
  9 11  1  0
 11 12  1  0
 12 13  1  0
 13 14  1  0
 14 15  2  0
 15 16  1  0
 16 17  2  0
 17 18  1  0
 17 19  1  0
 19 20  2  0
  8  3  1  0
 13 11  1  0
 20 14  1  0
  1 21  1  0
  1 22  1  0
  1 23  1  0
  4 24  1  0
  5 25  1  0
  7 26  1  0
  8 27  1  0
 11 28  1  0
 12 29  1  0
 12 30  1  0
 13 31  1  0
 15 32  1  0
 16 33  1  0
 19 34  1  0
 20 35  1  0
M  END
>  <Batch_No>  (242) 
4N-075

>  <EC50_nM>  (242) 
1060

>  <Set>  (242) 
Probe-like

>  <Molecular_Weight>  (242) 
286.7528

>  <ALogP>  (242) 
4.259

$$$$
MMV665944
     RDKit          3D

 47 49  0  0  0  0  0  0  0  0999 V2000
    7.5130    0.0806    0.0429 C   0  0  0  0  0  0  0  0  0  0  0  0
    6.5696   -0.0069    1.0922 O   0  0  0  0  0  0  0  0  0  0  0  0
    5.2396   -0.2150    0.7516 C   0  0  0  0  0  0  0  0  0  0  0  0
    4.2898   -0.3068    1.7653 C   0  0  0  0  0  0  0  0  0  0  0  0
    2.9459   -0.5131    1.4952 C   0  0  0  0  0  0  0  0  0  0  0  0
    2.5485   -0.6293    0.1824 C   0  0  0  0  0  0  0  0  0  0  0  0
    1.1404   -0.8502   -0.2380 C   0  0  0  0  0  0  0  0  0  0  0  0
    0.5165    0.3276   -0.7378 N   0  0  0  0  0  0  0  0  0  0  0  0
    0.3472    1.4056    0.1692 C   0  0  0  0  0  0  0  0  0  0  0  0
   -0.7306    1.1572    1.2037 C   0  0  0  0  0  0  0  0  0  0  0  0
   -1.9532    0.7334    0.6534 N   0  0  0  0  0  0  0  0  0  0  0  0
   -3.0981    0.6716    1.4727 C   0  0  0  0  0  0  0  0  0  0  0  0
   -4.2977    0.2353    0.7030 C   0  0  0  0  0  0  0  0  0  0  0  0
   -5.0416    1.2595    0.1172 C   0  0  0  0  0  0  0  0  0  0  0  0
   -6.1560    0.9327   -0.6130 C   0  0  0  0  0  0  0  0  0  0  0  0
   -6.5103   -0.3845   -0.7488 C   0  0  0  0  0  0  0  0  0  0  0  0
   -5.7604   -1.3922   -0.1596 C   0  0  0  0  0  0  0  0  0  0  0  0
   -4.6409   -1.0907    0.5760 C   0  0  0  0  0  0  0  0  0  0  0  0
   -1.8949   -0.1631   -0.4435 C   0  0  0  0  0  0  0  0  0  0  0  0
   -0.7382    0.0050   -1.3522 C   0  0  0  0  0  0  0  0  0  0  0  0
    3.4798   -0.5419   -0.8615 C   0  0  0  0  0  0  0  0  0  0  0  0
    3.0564   -0.6639   -2.2001 O   0  0  0  0  0  0  0  0  0  0  0  0
    4.8046   -0.3365   -0.5498 C   0  0  0  0  0  0  0  0  0  0  0  0
    7.3015    0.9885   -0.5387 H   0  0  0  0  0  0  0  0  0  0  0  0
    7.3401   -0.8135   -0.6104 H   0  0  0  0  0  0  0  0  0  0  0  0
    8.5622    0.0092    0.4087 H   0  0  0  0  0  0  0  0  0  0  0  0
    4.6529   -0.2062    2.7916 H   0  0  0  0  0  0  0  0  0  0  0  0
    2.2069   -0.5849    2.2794 H   0  0  0  0  0  0  0  0  0  0  0  0
    0.5405   -1.3161    0.5694 H   0  0  0  0  0  0  0  0  0  0  0  0
    1.1517   -1.5915   -1.0801 H   0  0  0  0  0  0  0  0  0  0  0  0
    1.2519    1.7240    0.7248 H   0  0  0  0  0  0  0  0  0  0  0  0
    0.0090    2.3056   -0.4181 H   0  0  0  0  0  0  0  0  0  0  0  0
   -0.3862    0.4333    1.9623 H   0  0  0  0  0  0  0  0  0  0  0  0
   -0.8824    2.1207    1.7423 H   0  0  0  0  0  0  0  0  0  0  0  0
   -3.3579    1.5914    2.0031 H   0  0  0  0  0  0  0  0  0  0  0  0
   -2.9246   -0.1183    2.2557 H   0  0  0  0  0  0  0  0  0  0  0  0
   -4.7850    2.2910    0.2110 H   0  0  0  0  0  0  0  0  0  0  0  0
   -6.7409    1.7097   -1.0711 H   0  0  0  0  0  0  0  0  0  0  0  0
   -7.3829   -0.6585   -1.3197 H   0  0  0  0  0  0  0  0  0  0  0  0
   -6.0538   -2.4267   -0.2769 H   0  0  0  0  0  0  0  0  0  0  0  0
   -4.0319   -1.8471    1.0485 H   0  0  0  0  0  0  0  0  0  0  0  0
   -2.8222    0.0137   -1.0604 H   0  0  0  0  0  0  0  0  0  0  0  0
   -1.9291   -1.1968   -0.0596 H   0  0  0  0  0  0  0  0  0  0  0  0
   -0.5810   -1.0015   -1.8523 H   0  0  0  0  0  0  0  0  0  0  0  0
   -0.9781    0.6722   -2.2143 H   0  0  0  0  0  0  0  0  0  0  0  0
    2.6881   -1.5437   -2.5409 H   0  0  0  0  0  0  0  0  0  0  0  0
    5.5215   -0.2689   -1.3564 H   0  0  0  0  0  0  0  0  0  0  0  0
  1  2  1  0
  2  3  1  0
  3  4  2  0
  4  5  1  0
  5  6  2  0
  6  7  1  0
  7  8  1  0
  8  9  1  0
  9 10  1  0
 10 11  1  0
 11 12  1  0
 12 13  1  0
 13 14  2  0
 14 15  1  0
 15 16  2  0
 16 17  1  0
 17 18  2  0
 11 19  1  0
 19 20  1  0
  6 21  1  0
 21 22  1  0
 21 23  2  0
 23  3  1  0
 20  8  1  0
 18 13  1  0
  1 24  1  0
  1 25  1  0
  1 26  1  0
  4 27  1  0
  5 28  1  0
  7 29  1  0
  7 30  1  0
  9 31  1  0
  9 32  1  0
 10 33  1  0
 10 34  1  0
 12 35  1  0
 12 36  1  0
 14 37  1  0
 15 38  1  0
 16 39  1  0
 17 40  1  0
 18 41  1  0
 19 42  1  0
 19 43  1  0
 20 44  1  0
 20 45  1  0
 22 46  1  0
 23 47  1  0
M  END
>  <Batch_No>  (243) 
5430595

>  <EC50_nM>  (243) 
1080

>  <Set>  (243) 
Probe-like

>  <Molecular_Weight>  (243) 
312.40605

>  <ALogP>  (243) 
3.186

$$$$
MMV666054
     RDKit          3D

 49 52  0  0  0  0  0  0  0  0999 V2000
    7.3847    2.2532   -1.1049 C   0  0  0  0  0  0  0  0  0  0  0  0
    6.7105    2.1641    0.1169 O   0  0  0  0  0  0  0  0  0  0  0  0
    5.4330    1.6588    0.3024 C   0  0  0  0  0  0  0  0  0  0  0  0
    4.6505    1.1687   -0.7233 C   0  0  0  0  0  0  0  0  0  0  0  0
    3.3661    0.6711   -0.4724 C   0  0  0  0  0  0  0  0  0  0  0  0
    2.8674    0.6629    0.7912 C   0  0  0  0  0  0  0  0  0  0  0  0
    3.6716    1.1599    1.8043 C   0  0  0  0  0  0  0  0  0  0  0  0
    4.9252    1.6495    1.5847 C   0  0  0  0  0  0  0  0  0  0  0  0
    1.5455    0.1737    1.1655 C   0  0  0  0  0  0  0  0  0  0  0  0
    1.1459    0.1757    2.3792 O   0  0  0  0  0  0  0  0  0  0  0  0
    0.6082   -0.3375    0.2201 N   0  0  0  0  0  0  0  0  0  0  0  0
   -0.6667   -0.7962    0.6686 C   0  0  0  0  0  0  0  0  0  0  0  0
   -0.9086   -2.2171    0.3190 C   0  0  0  0  0  0  0  0  0  0  0  0
   -1.1605   -3.1651    1.3221 C   0  0  0  0  0  0  0  0  0  0  0  0
   -1.3859   -4.4920    1.0296 C   0  0  0  0  0  0  0  0  0  0  0  0
   -1.3756   -4.9558   -0.2633 C   0  0  0  0  0  0  0  0  0  0  0  0
   -1.6591   -6.6334   -0.6595 Cl  0  0  0  0  0  0  0  0  0  0  0  0
   -1.1310   -4.0463   -1.2650 C   0  0  0  0  0  0  0  0  0  0  0  0
   -0.9034   -2.7041   -0.9647 C   0  0  0  0  0  0  0  0  0  0  0  0
   -0.6118   -1.6385   -2.3075 Cl  0  0  0  0  0  0  0  0  0  0  0  0
   -1.7750    0.0990    0.1710 C   0  0  0  0  0  0  0  0  0  0  0  0
   -1.5612    1.0331   -0.8200 C   0  0  0  0  0  0  0  0  0  0  0  0
   -2.6573    1.8058   -1.1914 C   0  0  0  0  0  0  0  0  0  0  0  0
   -2.4460    3.0078   -2.4461 Cl  0  0  0  0  0  0  0  0  0  0  0  0
   -3.8942    1.6547   -0.6070 C   0  0  0  0  0  0  0  0  0  0  0  0
   -4.9432    2.4312   -0.9979 C   0  0  0  0  0  0  0  0  0  0  0  0
   -6.1841    2.2663   -0.3981 C   0  0  0  0  0  0  0  0  0  0  0  0
   -6.3775    1.3243    0.5938 C   0  0  0  0  0  0  0  0  0  0  0  0
   -5.3174    0.5724    0.9566 N   0  0  0  0  0  0  0  0  0  0  0  0
   -4.1054    0.7114    0.3923 C   0  0  0  0  0  0  0  0  0  0  0  0
   -3.0252   -0.0644    0.7721 C   0  0  0  0  0  0  0  0  0  0  0  0
   -3.2321   -1.0101    1.7724 O   0  0  0  0  0  0  0  0  0  0  0  0
    8.0873    3.1204   -1.1175 H   0  0  0  0  0  0  0  0  0  0  0  0
    8.0485    1.3450   -1.1726 H   0  0  0  0  0  0  0  0  0  0  0  0
    6.7009    2.3101   -1.9728 H   0  0  0  0  0  0  0  0  0  0  0  0
    5.0351    1.1675   -1.7421 H   0  0  0  0  0  0  0  0  0  0  0  0
    2.7714    0.2946   -1.2761 H   0  0  0  0  0  0  0  0  0  0  0  0
    3.2921    1.1635    2.8285 H   0  0  0  0  0  0  0  0  0  0  0  0
    5.5122    2.0285    2.4230 H   0  0  0  0  0  0  0  0  0  0  0  0
    0.9151   -0.3467   -0.7722 H   0  0  0  0  0  0  0  0  0  0  0  0
   -0.7749   -0.7256    1.7870 H   0  0  0  0  0  0  0  0  0  0  0  0
   -1.1835   -2.8672    2.3741 H   0  0  0  0  0  0  0  0  0  0  0  0
   -1.5800   -5.2186    1.8152 H   0  0  0  0  0  0  0  0  0  0  0  0
   -1.1246   -4.4182   -2.2761 H   0  0  0  0  0  0  0  0  0  0  0  0
   -0.6105    1.1581   -1.2734 H   0  0  0  0  0  0  0  0  0  0  0  0
   -4.8167    3.1752   -1.7721 H   0  0  0  0  0  0  0  0  0  0  0  0
   -7.0274    2.8714   -0.6938 H   0  0  0  0  0  0  0  0  0  0  0  0
   -7.3224    1.1650    1.0834 H   0  0  0  0  0  0  0  0  0  0  0  0
   -2.9101   -0.8061    2.7163 H   0  0  0  0  0  0  0  0  0  0  0  0
  1  2  1  0
  2  3  1  0
  3  4  2  0
  4  5  1  0
  5  6  2  0
  6  7  1  0
  7  8  2  0
  6  9  1  0
  9 10  2  0
  9 11  1  0
 11 12  1  0
 12 13  1  0
 13 14  2  0
 14 15  1  0
 15 16  2  0
 16 17  1  0
 16 18  1  0
 18 19  2  0
 19 20  1  0
 12 21  1  0
 21 22  2  0
 22 23  1  0
 23 24  1  0
 23 25  2  0
 25 26  1  0
 26 27  2  0
 27 28  1  0
 28 29  2  0
 29 30  1  0
 30 31  2  0
 31 32  1  0
  8  3  1  0
 19 13  1  0
 31 21  1  0
 30 25  1  0
  1 33  1  0
  1 34  1  0
  1 35  1  0
  4 36  1  0
  5 37  1  0
  7 38  1  0
  8 39  1  0
 11 40  1  0
 12 41  1  0
 14 42  1  0
 15 43  1  0
 18 44  1  0
 22 45  1  0
 26 46  1  0
 27 47  1  0
 28 48  1  0
 32 49  1  0
M  END
>  <Batch_No>  (244) 
6419218

>  <EC50_nM>  (244) 
513

>  <Set>  (244) 
Probe-like

>  <Molecular_Weight>  (244) 
487.76237

>  <ALogP>  (244) 
6.154

$$$$
MMV008474
     RDKit          3D

 57 60  0  0  0  0  0  0  0  0999 V2000
    5.0737   -2.4542   -0.0129 C   0  0  0  0  0  0  0  0  0  0  0  0
    4.2440   -1.2366    0.3589 C   0  0  0  0  0  0  0  0  0  0  0  0
    3.1794   -1.5797    1.2562 N   0  0  0  0  0  0  0  0  0  0  0  0
    2.1622   -2.4021    0.6352 C   0  0  0  0  0  0  0  0  0  0  0  0
    1.3853   -1.6065   -0.3724 C   0  0  0  0  0  0  0  0  0  0  0  0
    0.6695   -0.5645    0.3587 N   0  0  0  0  0  0  0  0  0  0  0  0
    1.1053   -0.3098    1.7105 C   0  0  0  0  0  0  0  0  0  0  0  0
    2.6117   -0.3904    1.8389 C   0  0  0  0  0  0  0  0  0  0  0  0
   -0.3690    0.0978   -0.3054 C   0  0  0  0  0  0  0  0  0  0  0  0
   -0.2055    1.2602   -1.0219 C   0  0  0  0  0  0  0  0  0  0  0  0
   -1.2875    1.8488   -1.6901 C   0  0  0  0  0  0  0  0  0  0  0  0
   -2.4874    1.2765   -1.6299 N   0  0  0  0  0  0  0  0  0  0  0  0
   -2.6517    0.1417   -0.9299 C   0  0  0  0  0  0  0  0  0  0  0  0
   -3.9504   -0.3789   -0.9235 C   0  0  0  0  0  0  0  0  0  0  0  0
   -4.1580   -1.5389   -0.2113 C   0  0  0  0  0  0  0  0  0  0  0  0
   -5.4431   -2.0554   -0.2041 O   0  0  0  0  0  0  0  0  0  0  0  0
   -6.5290   -1.4786   -0.8717 C   0  0  0  0  0  0  0  0  0  0  0  0
   -3.1423   -2.1814    0.4758 C   0  0  0  0  0  0  0  0  0  0  0  0
   -3.4889   -3.3387    1.1508 O   0  0  0  0  0  0  0  0  0  0  0  0
   -2.5458   -4.0832    1.8863 C   0  0  0  0  0  0  0  0  0  0  0  0
   -1.8705   -1.6532    0.4562 C   0  0  0  0  0  0  0  0  0  0  0  0
   -1.6319   -0.4860   -0.2525 C   0  0  0  0  0  0  0  0  0  0  0  0
    1.0597    1.9597   -1.1216 C   0  0  0  0  0  0  0  0  0  0  0  0
    2.1677    1.4368   -1.3561 O   0  0  0  0  0  0  0  0  0  0  0  0
    1.0448    3.4270   -0.9284 C   0  0  0  0  0  0  0  0  0  0  0  0
   -0.0445    4.0360   -0.2982 C   0  0  0  0  0  0  0  0  0  0  0  0
    0.0149    5.4041   -0.1567 C   0  0  0  0  0  0  0  0  0  0  0  0
    1.0690    6.1737   -0.5957 C   0  0  0  0  0  0  0  0  0  0  0  0
    2.1601    5.5691   -1.2266 C   0  0  0  0  0  0  0  0  0  0  0  0
    2.0895    4.2027   -1.3624 C   0  0  0  0  0  0  0  0  0  0  0  0
    5.4320   -2.9737    0.8914 H   0  0  0  0  0  0  0  0  0  0  0  0
    4.5216   -3.1382   -0.6922 H   0  0  0  0  0  0  0  0  0  0  0  0
    5.9803   -2.1212   -0.5718 H   0  0  0  0  0  0  0  0  0  0  0  0
    4.9243   -0.5441    0.8781 H   0  0  0  0  0  0  0  0  0  0  0  0
    3.9373   -0.7517   -0.5765 H   0  0  0  0  0  0  0  0  0  0  0  0
    1.4644   -2.7070    1.4507 H   0  0  0  0  0  0  0  0  0  0  0  0
    2.6121   -3.3193    0.2485 H   0  0  0  0  0  0  0  0  0  0  0  0
    0.6429   -2.2801   -0.8616 H   0  0  0  0  0  0  0  0  0  0  0  0
    2.0450   -1.2492   -1.1544 H   0  0  0  0  0  0  0  0  0  0  0  0
    0.8298    0.7357    1.9692 H   0  0  0  0  0  0  0  0  0  0  0  0
    0.6340   -0.9914    2.4322 H   0  0  0  0  0  0  0  0  0  0  0  0
    3.1116    0.5026    1.4114 H   0  0  0  0  0  0  0  0  0  0  0  0
    2.8512   -0.3948    2.9216 H   0  0  0  0  0  0  0  0  0  0  0  0
   -1.1416    2.7742   -2.2592 H   0  0  0  0  0  0  0  0  0  0  0  0
   -4.7620    0.1206   -1.4639 H   0  0  0  0  0  0  0  0  0  0  0  0
   -6.2969   -1.1577   -1.9040 H   0  0  0  0  0  0  0  0  0  0  0  0
   -6.9820   -0.7110   -0.2326 H   0  0  0  0  0  0  0  0  0  0  0  0
   -7.3159   -2.2807   -0.9612 H   0  0  0  0  0  0  0  0  0  0  0  0
   -2.1549   -4.9159    1.2373 H   0  0  0  0  0  0  0  0  0  0  0  0
   -1.7237   -3.4866    2.3199 H   0  0  0  0  0  0  0  0  0  0  0  0
   -3.0223   -4.6167    2.7491 H   0  0  0  0  0  0  0  0  0  0  0  0
   -1.0611   -2.1308    0.9801 H   0  0  0  0  0  0  0  0  0  0  0  0
   -0.8920    3.4827    0.0674 H   0  0  0  0  0  0  0  0  0  0  0  0
   -0.8193    5.9000    0.3290 H   0  0  0  0  0  0  0  0  0  0  0  0
    1.0414    7.2591   -0.4456 H   0  0  0  0  0  0  0  0  0  0  0  0
    2.9735    6.1817   -1.5631 H   0  0  0  0  0  0  0  0  0  0  0  0
    2.9389    3.7178   -1.8560 H   0  0  0  0  0  0  0  0  0  0  0  0
  1  2  1  0
  2  3  1  0
  3  4  1  0
  4  5  1  0
  5  6  1  0
  6  7  1  0
  7  8  1  0
  6  9  1  0
  9 10  1  0
 10 11  2  0
 11 12  1  0
 12 13  2  0
 13 14  1  0
 14 15  2  0
 15 16  1  0
 16 17  1  0
 15 18  1  0
 18 19  1  0
 19 20  1  0
 18 21  2  0
 21 22  1  0
 10 23  1  0
 23 24  2  0
 23 25  1  0
 25 26  2  0
 26 27  1  0
 27 28  2  0
 28 29  1  0
 29 30  2  0
  8  3  1  0
 22  9  2  0
 22 13  1  0
 30 25  1  0
  1 31  1  0
  1 32  1  0
  1 33  1  0
  2 34  1  0
  2 35  1  0
  4 36  1  0
  4 37  1  0
  5 38  1  0
  5 39  1  0
  7 40  1  0
  7 41  1  0
  8 42  1  0
  8 43  1  0
 11 44  1  0
 14 45  1  0
 17 46  1  0
 17 47  1  0
 17 48  1  0
 20 49  1  0
 20 50  1  0
 20 51  1  0
 21 52  1  0
 26 53  1  0
 27 54  1  0
 28 55  1  0
 29 56  1  0
 30 57  1  0
M  END
>  <Batch_No>  (245) 
C768-1312

>  <EC50_nM>  (245) 
ND

>  <Set>  (245) 
Probe-like

>  <Molecular_Weight>  (245) 
405.48947

>  <ALogP>  (245) 
3.856

$$$$
MMV000445
     RDKit          3D

 59 61  0  0  0  0  0  0  0  0999 V2000
    6.3740   -0.9211    3.1722 C   0  0  0  0  0  0  0  0  0  0  0  0
    6.2421   -0.0762    1.9450 C   0  0  0  0  0  0  0  0  0  0  0  0
    5.3643   -0.7115    0.8831 C   0  0  0  0  0  0  0  0  0  0  0  0
    3.9792   -0.9630    1.3520 C   0  0  0  0  0  0  0  0  0  0  0  0
    3.1806    0.1943    1.7824 C   0  0  0  0  0  0  0  0  0  0  0  0
    2.8131    1.2478    0.8133 C   0  0  0  0  0  0  0  0  0  0  0  0
    1.9715    0.8527   -0.2808 N   0  0  0  0  0  0  0  0  0  0  0  0
    0.6138    0.8118   -0.1538 C   0  0  0  0  0  0  0  0  0  0  0  0
   -0.0782    1.0895    0.9133 N   0  0  0  0  0  0  0  0  0  0  0  0
    0.0475    0.4369   -1.3034 N   0  0  0  0  0  0  0  0  0  0  0  0
   -1.3606    0.2659   -1.6001 C   0  0  0  0  0  0  0  0  0  0  0  0
   -1.8119   -1.1485   -1.3122 C   0  0  0  0  0  0  0  0  0  0  0  0
   -1.6207   -1.4709    0.0111 O   0  0  0  0  0  0  0  0  0  0  0  0
   -3.3062   -1.3066   -1.6254 C   0  0  0  0  0  0  0  0  0  0  0  0
   -4.1293   -0.5836   -0.9547 O   0  0  0  0  0  0  0  0  0  0  0  0
   -4.9351    0.1261   -0.2982 C   0  0  0  0  0  0  0  0  0  0  0  0
   -4.9005    1.5279   -0.3136 C   0  0  0  0  0  0  0  0  0  0  0  0
   -5.7722    2.3085    0.3968 C   0  0  0  0  0  0  0  0  0  0  0  0
   -6.7297    1.6897    1.1639 C   0  0  0  0  0  0  0  0  0  0  0  0
   -6.8239    0.3182    1.2276 C   0  0  0  0  0  0  0  0  0  0  0  0
   -7.8593   -0.3674    2.0568 C   0  0  0  0  0  0  0  0  0  0  0  0
   -5.9438   -0.4217    0.5108 C   0  0  0  0  0  0  0  0  0  0  0  0
    1.0162    0.2236   -2.2118 C   0  0  0  0  0  0  0  0  0  0  0  0
    0.9758   -0.1623   -3.5331 C   0  0  0  0  0  0  0  0  0  0  0  0
    2.1422   -0.2950   -4.2476 C   0  0  0  0  0  0  0  0  0  0  0  0
    3.3199   -0.0257   -3.5801 C   0  0  0  0  0  0  0  0  0  0  0  0
    3.3599    0.3597   -2.2594 C   0  0  0  0  0  0  0  0  0  0  0  0
    2.2009    0.4928   -1.5399 C   0  0  0  0  0  0  0  0  0  0  0  0
    6.1794   -1.9813    2.9582 H   0  0  0  0  0  0  0  0  0  0  0  0
    5.7441   -0.5109    3.9771 H   0  0  0  0  0  0  0  0  0  0  0  0
    7.4202   -0.8713    3.5512 H   0  0  0  0  0  0  0  0  0  0  0  0
    7.2596   -0.0028    1.4728 H   0  0  0  0  0  0  0  0  0  0  0  0
    5.9054    0.9447    2.1297 H   0  0  0  0  0  0  0  0  0  0  0  0
    5.8155   -1.7138    0.6565 H   0  0  0  0  0  0  0  0  0  0  0  0
    5.4790   -0.1180   -0.0037 H   0  0  0  0  0  0  0  0  0  0  0  0
    3.9849   -1.7308    2.1563 H   0  0  0  0  0  0  0  0  0  0  0  0
    3.4428   -1.4693    0.5034 H   0  0  0  0  0  0  0  0  0  0  0  0
    3.6621    0.7092    2.6557 H   0  0  0  0  0  0  0  0  0  0  0  0
    2.2137   -0.2056    2.2335 H   0  0  0  0  0  0  0  0  0  0  0  0
    2.3426    2.0818    1.4181 H   0  0  0  0  0  0  0  0  0  0  0  0
    3.7574    1.7306    0.4348 H   0  0  0  0  0  0  0  0  0  0  0  0
   -1.1025    1.0494    0.9781 H   0  0  0  0  0  0  0  0  0  0  0  0
   -1.5897    0.5614   -2.6440 H   0  0  0  0  0  0  0  0  0  0  0  0
   -1.9198    0.9650   -0.9555 H   0  0  0  0  0  0  0  0  0  0  0  0
   -1.2793   -1.8386   -1.9772 H   0  0  0  0  0  0  0  0  0  0  0  0
   -1.8872   -2.4324    0.1278 H   0  0  0  0  0  0  0  0  0  0  0  0
   -3.4732   -2.4240   -1.4143 H   0  0  0  0  0  0  0  0  0  0  0  0
   -3.4168   -1.3128   -2.7682 H   0  0  0  0  0  0  0  0  0  0  0  0
   -4.1561    2.0333   -0.9097 H   0  0  0  0  0  0  0  0  0  0  0  0
   -5.7439    3.3853    0.3837 H   0  0  0  0  0  0  0  0  0  0  0  0
   -7.4419    2.2546    1.7436 H   0  0  0  0  0  0  0  0  0  0  0  0
   -8.5782    0.3497    2.4832 H   0  0  0  0  0  0  0  0  0  0  0  0
   -8.3385   -1.2116    1.5292 H   0  0  0  0  0  0  0  0  0  0  0  0
   -7.3080   -0.8350    2.9159 H   0  0  0  0  0  0  0  0  0  0  0  0
   -6.0121   -1.5035    0.5561 H   0  0  0  0  0  0  0  0  0  0  0  0
    0.0158   -0.3609   -4.0064 H   0  0  0  0  0  0  0  0  0  0  0  0
    2.1439   -0.5964   -5.2859 H   0  0  0  0  0  0  0  0  0  0  0  0
    4.2727   -0.1218   -4.1235 H   0  0  0  0  0  0  0  0  0  0  0  0
    4.2784    0.5704   -1.7907 H   0  0  0  0  0  0  0  0  0  0  0  0
  1  2  1  0
  2  3  1  0
  3  4  1  0
  4  5  1  0
  5  6  1  0
  6  7  1  0
  7  8  1  0
  8  9  2  3
  8 10  1  0
 10 11  1  0
 11 12  1  0
 12 13  1  0
 12 14  1  0
 14 15  1  0
 15 16  1  0
 16 17  2  0
 17 18  1  0
 18 19  2  0
 19 20  1  0
 20 21  1  0
 20 22  2  0
 10 23  1  0
 23 24  2  0
 24 25  1  0
 25 26  2  0
 26 27  1  0
 27 28  2  0
 28  7  1  0
 22 16  1  0
 28 23  1  0
  1 29  1  0
  1 30  1  0
  1 31  1  0
  2 32  1  0
  2 33  1  0
  3 34  1  0
  3 35  1  0
  4 36  1  0
  4 37  1  0
  5 38  1  0
  5 39  1  0
  6 40  1  0
  6 41  1  0
  9 42  1  0
 11 43  1  0
 11 44  1  0
 12 45  1  0
 13 46  1  0
 14 47  1  0
 14 48  1  0
 17 49  1  0
 18 50  1  0
 19 51  1  0
 21 52  1  0
 21 53  1  0
 21 54  1  0
 22 55  1  0
 24 56  1  0
 25 57  1  0
 26 58  1  0
 27 59  1  0
M  END
>  <Batch_No>  (246) 
6738-0028

>  <EC50_nM>  (246) 
1135

>  <Set>  (246) 
Probe-like

>  <Molecular_Weight>  (246) 
381.51114

>  <ALogP>  (246) 
5.008

$$$$
MMV006882
     RDKit          3D

 45 46  0  0  0  0  0  0  0  0999 V2000
   -6.1188   -2.6836    0.1597 C   0  0  0  0  0  0  0  0  0  0  0  0
   -4.6280   -2.5879    0.0465 C   0  0  0  0  0  0  0  0  0  0  0  0
   -4.2351   -1.2116    0.0748 O   0  0  0  0  0  0  0  0  0  0  0  0
   -2.8330   -0.9742   -0.0239 C   0  0  0  0  0  0  0  0  0  0  0  0
   -2.1866   -2.0356   -0.1170 O   0  0  0  0  0  0  0  0  0  0  0  0
   -2.3587    0.3821   -0.0053 C   0  0  0  0  0  0  0  0  0  0  0  0
   -3.3438    1.3751    0.1170 C   0  0  0  0  0  0  0  0  0  0  0  0
   -3.0810    2.6667    0.1542 N   0  0  0  0  0  0  0  0  0  0  0  0
   -1.8303    3.0767    0.0733 C   0  0  0  0  0  0  0  0  0  0  0  0
   -1.6031    4.4420    0.1135 C   0  0  0  0  0  0  0  0  0  0  0  0
   -0.3347    4.9498    0.0327 C   0  0  0  0  0  0  0  0  0  0  0  0
    0.6947    4.0448   -0.0893 C   0  0  0  0  0  0  0  0  0  0  0  0
    2.3420    4.6492   -0.1997 Cl  0  0  0  0  0  0  0  0  0  0  0  0
    0.4517    2.6719   -0.1286 C   0  0  0  0  0  0  0  0  0  0  0  0
   -0.8137    2.1438   -0.0488 C   0  0  0  0  0  0  0  0  0  0  0  0
   -1.0078    0.7797   -0.0944 C   0  0  0  0  0  0  0  0  0  0  0  0
   -0.0307   -0.1995   -0.2210 N   0  0  0  0  0  0  0  0  0  0  0  0
    1.3969   -0.2139   -0.3157 C   0  0  0  0  0  0  0  0  0  0  0  0
    1.8643   -1.6768   -0.4565 C   0  0  0  0  0  0  0  0  0  0  0  0
    3.3084   -1.8628   -0.5854 C   0  0  0  0  0  0  0  0  0  0  0  0
    4.1807   -1.4269    0.4387 N   0  0  0  0  0  0  0  0  0  0  0  0
    4.3074   -0.0046    0.6027 C   0  0  0  0  0  0  0  0  0  0  0  0
    5.4967   -1.9604    0.1430 C   0  0  0  0  0  0  0  0  0  0  0  0
   -6.3570   -3.4268    0.9507 H   0  0  0  0  0  0  0  0  0  0  0  0
   -6.5248   -1.6817    0.4392 H   0  0  0  0  0  0  0  0  0  0  0  0
   -6.5281   -3.0152   -0.8160 H   0  0  0  0  0  0  0  0  0  0  0  0
   -4.2771   -2.9666   -0.9452 H   0  0  0  0  0  0  0  0  0  0  0  0
   -4.1119   -3.1166    0.8733 H   0  0  0  0  0  0  0  0  0  0  0  0
   -4.4055    1.0941    0.1902 H   0  0  0  0  0  0  0  0  0  0  0  0
   -2.4442    5.1333    0.2130 H   0  0  0  0  0  0  0  0  0  0  0  0
   -0.2091    6.0169    0.0664 H   0  0  0  0  0  0  0  0  0  0  0  0
    1.3061    2.0650   -0.2251 H   0  0  0  0  0  0  0  0  0  0  0  0
   -0.4201   -1.2042   -0.2675 H   0  0  0  0  0  0  0  0  0  0  0  0
    1.7863    0.1737    0.6419 H   0  0  0  0  0  0  0  0  0  0  0  0
    1.7169    0.2484   -1.2426 H   0  0  0  0  0  0  0  0  0  0  0  0
    1.3666   -2.0577   -1.3732 H   0  0  0  0  0  0  0  0  0  0  0  0
    1.4161   -2.2256    0.3938 H   0  0  0  0  0  0  0  0  0  0  0  0
    3.4976   -2.9733   -0.7130 H   0  0  0  0  0  0  0  0  0  0  0  0
    3.7122   -1.4423   -1.5579 H   0  0  0  0  0  0  0  0  0  0  0  0
    5.4122    0.2521    0.6300 H   0  0  0  0  0  0  0  0  0  0  0  0
    3.9349    0.5636   -0.2775 H   0  0  0  0  0  0  0  0  0  0  0  0
    3.9418    0.3814    1.5767 H   0  0  0  0  0  0  0  0  0  0  0  0
    6.3234   -1.2959    0.5313 H   0  0  0  0  0  0  0  0  0  0  0  0
    5.6049   -1.8663   -0.9730 H   0  0  0  0  0  0  0  0  0  0  0  0
    5.6216   -3.0006    0.4736 H   0  0  0  0  0  0  0  0  0  0  0  0
  1  2  1  0
  2  3  1  0
  3  4  1  0
  4  5  2  0
  4  6  1  0
  6  7  2  0
  7  8  1  0
  8  9  2  0
  9 10  1  0
 10 11  2  0
 11 12  1  0
 12 13  1  0
 12 14  2  0
 14 15  1  0
 15 16  2  0
 16 17  1  0
 17 18  1  0
 18 19  1  0
 19 20  1  0
 20 21  1  0
 21 22  1  0
 21 23  1  0
 16  6  1  0
 15  9  1  0
  1 24  1  0
  1 25  1  0
  1 26  1  0
  2 27  1  0
  2 28  1  0
  7 29  1  0
 10 30  1  0
 11 31  1  0
 14 32  1  0
 17 33  1  0
 18 34  1  0
 18 35  1  0
 19 36  1  0
 19 37  1  0
 20 38  1  0
 20 39  1  0
 22 40  1  0
 22 41  1  0
 22 42  1  0
 23 43  1  0
 23 44  1  0
 23 45  1  0
M  END
>  <Batch_No>  (247) 
5695-1023

>  <EC50_nM>  (247) 
1190

>  <Set>  (247) 
Probe-like

>  <Molecular_Weight>  (247) 
335.82847

>  <ALogP>  (247) 
2.894

$$$$
MMV007127
     RDKit          3D

 40 44  0  0  0  0  0  0  0  0999 V2000
    1.6244   -2.1203   -1.9324 O   0  0  0  0  0  0  0  0  0  0  0  0
    0.3964   -1.8415   -1.3130 C   0  0  0  0  0  0  0  0  0  0  0  0
    0.0695   -0.5778   -0.9791 C   0  0  0  0  0  0  0  0  0  0  0  0
    1.0001    0.5121   -1.2636 C   0  0  0  0  0  0  0  0  0  0  0  0
    0.2750    2.1141   -1.4839 S   0  0  0  0  0  0  0  0  0  0  0  0
   -0.9974    2.5378   -0.3446 C   0  0  0  0  0  0  0  0  0  0  0  0
   -1.0236    3.9044   -0.0915 C   0  0  0  0  0  0  0  0  0  0  0  0
   -1.9788    4.3847    0.7964 C   0  0  0  0  0  0  0  0  0  0  0  0
   -2.8643    3.5156    1.3973 C   0  0  0  0  0  0  0  0  0  0  0  0
   -2.8147    2.1816    1.1297 C   0  0  0  0  0  0  0  0  0  0  0  0
   -1.8824    1.6623    0.2546 C   0  0  0  0  0  0  0  0  0  0  0  0
   -2.0073    0.2622    0.1185 N   0  0  0  0  0  0  0  0  0  0  0  0
   -1.2336   -0.6052   -0.3677 C   0  0  0  0  0  0  0  0  0  0  0  0
   -1.6456   -2.0325   -0.3759 C   0  0  0  0  0  0  0  0  0  0  0  0
   -2.7863   -2.6846    0.0701 C   0  0  0  0  0  0  0  0  0  0  0  0
   -2.8877   -4.0497   -0.0759 C   0  0  0  0  0  0  0  0  0  0  0  0
   -1.8622   -4.7796   -0.6638 C   0  0  0  0  0  0  0  0  0  0  0  0
   -0.7241   -4.1287   -1.1088 C   0  0  0  0  0  0  0  0  0  0  0  0
   -0.6416   -2.7567   -0.9528 C   0  0  0  0  0  0  0  0  0  0  0  0
    2.1077    0.6532   -0.2731 C   0  0  0  0  0  0  0  0  0  0  0  0
    3.4306    0.4990   -0.6985 C   0  0  0  0  0  0  0  0  0  0  0  0
    4.4686    0.6308    0.2277 C   0  0  0  0  0  0  0  0  0  0  0  0
    4.2131    0.9119    1.5624 C   0  0  0  0  0  0  0  0  0  0  0  0
    5.6908    1.0785    2.7765 Br  0  0  0  0  0  0  0  0  0  0  0  0
    2.9053    1.0638    1.9805 C   0  0  0  0  0  0  0  0  0  0  0  0
    1.8872    0.9320    1.0595 C   0  0  0  0  0  0  0  0  0  0  0  0
    1.6812   -2.9639   -2.4679 H   0  0  0  0  0  0  0  0  0  0  0  0
    1.5169    0.2925   -2.2238 H   0  0  0  0  0  0  0  0  0  0  0  0
   -0.3178    4.5720   -0.5746 H   0  0  0  0  0  0  0  0  0  0  0  0
   -2.0430    5.4446    1.0298 H   0  0  0  0  0  0  0  0  0  0  0  0
   -3.6173    3.8999    2.0982 H   0  0  0  0  0  0  0  0  0  0  0  0
   -3.5212    1.5336    1.6168 H   0  0  0  0  0  0  0  0  0  0  0  0
   -3.5824   -2.0791    0.5321 H   0  0  0  0  0  0  0  0  0  0  0  0
   -3.7725   -4.5716    0.2678 H   0  0  0  0  0  0  0  0  0  0  0  0
   -1.9074   -5.8512   -0.7947 H   0  0  0  0  0  0  0  0  0  0  0  0
    0.0775   -4.6787   -1.5655 H   0  0  0  0  0  0  0  0  0  0  0  0
    3.6684    0.2796   -1.7303 H   0  0  0  0  0  0  0  0  0  0  0  0
    5.5013    0.5166   -0.0737 H   0  0  0  0  0  0  0  0  0  0  0  0
    2.7239    1.2826    3.0237 H   0  0  0  0  0  0  0  0  0  0  0  0
    0.8731    1.0558    1.4134 H   0  0  0  0  0  0  0  0  0  0  0  0
  1  2  1  0
  2  3  2  0
  3  4  1  0
  4  5  1  0
  5  6  1  0
  6  7  2  0
  7  8  1  0
  8  9  2  0
  9 10  1  0
 10 11  2  0
 11 12  1  0
 12 13  2  0
 13 14  1  0
 14 15  2  0
 15 16  1  0
 16 17  2  0
 17 18  1  0
 18 19  2  0
  4 20  1  0
 20 21  2  0
 21 22  1  0
 22 23  2  0
 23 24  1  0
 23 25  1  0
 25 26  2  0
 19  2  1  0
 13  3  1  0
 11  6  1  0
 19 14  1  0
 26 20  1  0
  1 27  1  0
  4 28  1  0
  7 29  1  0
  8 30  1  0
  9 31  1  0
 10 32  1  0
 15 33  1  0
 16 34  1  0
 17 35  1  0
 18 36  1  0
 21 37  1  0
 22 38  1  0
 25 39  1  0
 26 40  1  0
M  END
>  <Batch_No>  (248) 
4477-0055

>  <EC50_nM>  (248) 
567

>  <Set>  (248) 
Probe-like

>  <Molecular_Weight>  (248) 
420.32166

>  <ALogP>  (248) 
5.787

$$$$
MMV666123
     RDKit          3D

 50 53  0  0  0  0  0  0  0  0999 V2000
    4.9489    2.4013    0.3649 C   0  0  0  0  0  0  0  0  0  0  0  0
    4.9120    1.0231   -0.2354 C   0  0  0  0  0  0  0  0  0  0  0  0
    5.4019    1.0616   -1.6872 C   0  0  0  0  0  0  0  0  0  0  0  0
    5.8171    0.0500    0.4932 C   0  0  0  0  0  0  0  0  0  0  0  0
    3.5000    0.5303   -0.1989 C   0  0  0  0  0  0  0  0  0  0  0  0
    3.0427   -0.1728    0.8983 C   0  0  0  0  0  0  0  0  0  0  0  0
    1.7370   -0.6442    0.9633 C   0  0  0  0  0  0  0  0  0  0  0  0
    0.8631   -0.4160   -0.0787 C   0  0  0  0  0  0  0  0  0  0  0  0
    1.3139    0.2851   -1.1760 C   0  0  0  0  0  0  0  0  0  0  0  0
    2.6151    0.7492   -1.2296 C   0  0  0  0  0  0  0  0  0  0  0  0
   -0.4962   -0.9315    0.0387 C   0  0  0  0  0  0  0  0  0  0  0  0
   -0.7885   -1.5547    1.0868 O   0  0  0  0  0  0  0  0  0  0  0  0
   -1.4821   -0.7649   -0.9555 N   0  0  0  0  0  0  0  0  0  0  0  0
   -2.7772   -1.3095   -0.7370 C   0  0  0  0  0  0  0  0  0  0  0  0
   -3.2345   -2.6015   -1.0878 C   0  0  0  0  0  0  0  0  0  0  0  0
   -2.6584   -3.7819   -1.7387 C   0  0  0  0  0  0  0  0  0  0  0  0
   -4.1555   -4.7258   -2.1504 S   0  0  0  0  0  0  0  0  0  0  0  0
   -5.2321   -3.9116   -0.9337 C   0  0  0  0  0  0  0  0  0  0  0  0
   -4.4959   -2.6624   -0.6922 C   0  0  0  0  0  0  0  0  0  0  0  0
   -4.8022   -1.4454   -0.1167 N   0  0  0  0  0  0  0  0  0  0  0  0
   -3.7702   -0.6340   -0.1440 N   0  0  0  0  0  0  0  0  0  0  0  0
   -3.7889    0.6903    0.3776 C   0  0  0  0  0  0  0  0  0  0  0  0
   -3.3860    1.7258   -0.4664 C   0  0  0  0  0  0  0  0  0  0  0  0
   -3.3725    3.0427   -0.0441 C   0  0  0  0  0  0  0  0  0  0  0  0
   -3.7630    3.3571    1.2373 C   0  0  0  0  0  0  0  0  0  0  0  0
   -4.1668    2.3322    2.0877 C   0  0  0  0  0  0  0  0  0  0  0  0
   -4.6762    2.6933    3.7419 Cl  0  0  0  0  0  0  0  0  0  0  0  0
   -4.1776    1.0045    1.6534 C   0  0  0  0  0  0  0  0  0  0  0  0
    5.4104    2.4205    1.3702 H   0  0  0  0  0  0  0  0  0  0  0  0
    5.5661    3.0911   -0.2624 H   0  0  0  0  0  0  0  0  0  0  0  0
    3.9467    2.8781    0.4457 H   0  0  0  0  0  0  0  0  0  0  0  0
    6.4906    0.9451   -1.6535 H   0  0  0  0  0  0  0  0  0  0  0  0
    5.2073    2.0542   -2.1478 H   0  0  0  0  0  0  0  0  0  0  0  0
    4.8770    0.2278   -2.2144 H   0  0  0  0  0  0  0  0  0  0  0  0
    6.8563    0.0720    0.0634 H   0  0  0  0  0  0  0  0  0  0  0  0
    5.8325    0.2355    1.5852 H   0  0  0  0  0  0  0  0  0  0  0  0
    5.4398   -0.9850    0.2755 H   0  0  0  0  0  0  0  0  0  0  0  0
    3.7281   -0.3607    1.7333 H   0  0  0  0  0  0  0  0  0  0  0  0
    1.4422   -1.1902    1.8559 H   0  0  0  0  0  0  0  0  0  0  0  0
    0.6437    0.4744   -2.0037 H   0  0  0  0  0  0  0  0  0  0  0  0
    2.9183    1.2862   -2.0984 H   0  0  0  0  0  0  0  0  0  0  0  0
   -1.2562   -0.2489   -1.8341 H   0  0  0  0  0  0  0  0  0  0  0  0
   -2.1240   -3.5951   -2.6880 H   0  0  0  0  0  0  0  0  0  0  0  0
   -1.9677   -4.3409   -1.0778 H   0  0  0  0  0  0  0  0  0  0  0  0
   -6.2364   -3.7271   -1.3708 H   0  0  0  0  0  0  0  0  0  0  0  0
   -5.3147   -4.5733   -0.0703 H   0  0  0  0  0  0  0  0  0  0  0  0
   -3.0732    1.4990   -1.4841 H   0  0  0  0  0  0  0  0  0  0  0  0
   -3.0644    3.8652   -0.6788 H   0  0  0  0  0  0  0  0  0  0  0  0
   -3.7644    4.3905    1.6046 H   0  0  0  0  0  0  0  0  0  0  0  0
   -4.4863    0.1912    2.2932 H   0  0  0  0  0  0  0  0  0  0  0  0
  1  2  1  0
  2  3  1  0
  2  4  1  0
  2  5  1  0
  5  6  2  0
  6  7  1  0
  7  8  2  0
  8  9  1  0
  9 10  2  0
  8 11  1  0
 11 12  2  0
 11 13  1  0
 13 14  1  0
 14 15  2  0
 15 16  1  0
 16 17  1  0
 17 18  1  0
 18 19  1  0
 19 20  2  0
 20 21  1  0
 21 22  1  0
 22 23  2  0
 23 24  1  0
 24 25  2  0
 25 26  1  0
 26 27  1  0
 26 28  2  0
 10  5  1  0
 21 14  1  0
 19 15  1  0
 28 22  1  0
  1 29  1  0
  1 30  1  0
  1 31  1  0
  3 32  1  0
  3 33  1  0
  3 34  1  0
  4 35  1  0
  4 36  1  0
  4 37  1  0
  6 38  1  0
  7 39  1  0
  9 40  1  0
 10 41  1  0
 13 42  1  0
 16 43  1  0
 16 44  1  0
 18 45  1  0
 18 46  1  0
 23 47  1  0
 24 48  1  0
 25 49  1  0
 28 50  1  0
M  END
>  <Batch_No>  (249) 
F0541-1280A

>  <EC50_nM>  (249) 
ND

>  <Set>  (249) 
Probe-like

>  <Molecular_Weight>  (249) 
411.94758

>  <ALogP>  (249) 
5.547

$$$$
MMV006389
     RDKit          3D

 40 44  0  0  0  0  0  0  0  0999 V2000
    5.1054   -0.1920   -2.8623 F   0  0  0  0  0  0  0  0  0  0  0  0
    4.4134   -0.0633   -1.7029 C   0  0  0  0  0  0  0  0  0  0  0  0
    5.0075   -0.2226   -0.4570 C   0  0  0  0  0  0  0  0  0  0  0  0
    4.2983   -0.0904    0.7169 C   0  0  0  0  0  0  0  0  0  0  0  0
    2.9634    0.2081    0.6485 C   0  0  0  0  0  0  0  0  0  0  0  0
    2.3330    0.3750   -0.5731 C   0  0  0  0  0  0  0  0  0  0  0  0
    3.0513    0.2407   -1.7456 C   0  0  0  0  0  0  0  0  0  0  0  0
    0.8836    0.6968   -0.5402 C   0  0  0  0  0  0  0  0  0  0  0  0
    0.7218    2.2755    0.3389 S   0  0  0  0  0  0  0  0  0  0  0  0
   -0.9911    2.6937    0.4338 C   0  0  0  0  0  0  0  0  0  0  0  0
   -1.1297    4.0666    0.5888 C   0  0  0  0  0  0  0  0  0  0  0  0
   -2.3667    4.6465    0.6881 C   0  0  0  0  0  0  0  0  0  0  0  0
   -3.4678    3.8184    0.6285 C   0  0  0  0  0  0  0  0  0  0  0  0
   -3.3371    2.4526    0.4744 C   0  0  0  0  0  0  0  0  0  0  0  0
   -2.0787    1.8478    0.3718 C   0  0  0  0  0  0  0  0  0  0  0  0
   -2.2214    0.4662    0.2237 N   0  0  0  0  0  0  0  0  0  0  0  0
   -1.2635   -0.4127    0.1805 C   0  0  0  0  0  0  0  0  0  0  0  0
    0.1847   -0.3465    0.2578 C   0  0  0  0  0  0  0  0  0  0  0  0
    0.5857   -1.6632   -0.3109 C   0  0  0  0  0  0  0  0  0  0  0  0
    1.7300   -1.9868   -0.7717 O   0  0  0  0  0  0  0  0  0  0  0  0
   -0.5356   -2.5849   -0.2785 C   0  0  0  0  0  0  0  0  0  0  0  0
   -0.5967   -3.9564   -0.4856 C   0  0  0  0  0  0  0  0  0  0  0  0
   -1.8216   -4.5991   -0.3927 C   0  0  0  0  0  0  0  0  0  0  0  0
   -2.9731   -3.8649   -0.0937 C   0  0  0  0  0  0  0  0  0  0  0  0
   -2.8535   -2.5074    0.1019 C   0  0  0  0  0  0  0  0  0  0  0  0
   -1.6498   -1.8351    0.0170 C   0  0  0  0  0  0  0  0  0  0  0  0
    6.0691   -0.4584   -0.4759 H   0  0  0  0  0  0  0  0  0  0  0  0
    4.8022   -0.2233    1.6712 H   0  0  0  0  0  0  0  0  0  0  0  0
    2.4280    0.3069    1.5802 H   0  0  0  0  0  0  0  0  0  0  0  0
    2.5346    0.3759   -2.6747 H   0  0  0  0  0  0  0  0  0  0  0  0
    0.4865    0.8078   -1.5642 H   0  0  0  0  0  0  0  0  0  0  0  0
   -0.2663    4.6976    0.6336 H   0  0  0  0  0  0  0  0  0  0  0  0
   -2.5357    5.7061    0.8095 H   0  0  0  0  0  0  0  0  0  0  0  0
   -4.4584    4.2328    0.7024 H   0  0  0  0  0  0  0  0  0  0  0  0
   -4.2469    1.8496    0.4341 H   0  0  0  0  0  0  0  0  0  0  0  0
    0.4699   -0.2475    1.3209 H   0  0  0  0  0  0  0  0  0  0  0  0
    0.3101   -4.5299   -0.7203 H   0  0  0  0  0  0  0  0  0  0  0  0
   -1.8920   -5.6700   -0.5508 H   0  0  0  0  0  0  0  0  0  0  0  0
   -3.9455   -4.3665   -0.0186 H   0  0  0  0  0  0  0  0  0  0  0  0
   -3.7474   -1.9438    0.3330 H   0  0  0  0  0  0  0  0  0  0  0  0
  1  2  1  0
  2  3  2  0
  3  4  1  0
  4  5  2  0
  5  6  1  0
  6  7  2  0
  6  8  1  0
  8  9  1  0
  9 10  1  0
 10 11  2  0
 11 12  1  0
 12 13  2  0
 13 14  1  0
 14 15  2  0
 15 16  1  0
 16 17  2  0
 17 18  1  0
 18 19  1  0
 19 20  2  0
 19 21  1  0
 21 22  2  0
 22 23  1  0
 23 24  2  0
 24 25  1  0
 25 26  2  0
  7  2  1  0
 18  8  1  0
 15 10  1  0
 26 17  1  0
 26 21  1  0
  3 27  1  0
  4 28  1  0
  5 29  1  0
  7 30  1  0
  8 31  1  0
 11 32  1  0
 12 33  1  0
 13 34  1  0
 14 35  1  0
 18 36  1  0
 22 37  1  0
 23 38  1  0
 24 39  1  0
 25 40  1  0
M  END
>  <Batch_No>  (250) 
STK028803

>  <EC50_nM>  (250) 
414.5

>  <Set>  (250) 
Probe-like

>  <Molecular_Weight>  (250) 
359.41606

>  <ALogP>  (250) 
5.251

$$$$
MMV665949
     RDKit          3D

 28 29  0  0  0  0  0  0  0  0999 V2000
   -4.6361   -1.6513    0.1061 O   0  0  0  0  0  0  0  0  0  0  0  0
   -3.5144   -0.8775    0.0563 C   0  0  0  0  0  0  0  0  0  0  0  0
   -2.5081   -1.1271    0.9954 C   0  0  0  0  0  0  0  0  0  0  0  0
   -1.3867   -0.3180    0.9079 C   0  0  0  0  0  0  0  0  0  0  0  0
   -1.2482    0.6755   -0.0386 C   0  0  0  0  0  0  0  0  0  0  0  0
   -2.2458    0.9087   -0.9513 C   0  0  0  0  0  0  0  0  0  0  0  0
   -3.3756    0.1259   -0.8949 C   0  0  0  0  0  0  0  0  0  0  0  0
    0.0104    1.4192   -0.0237 C   0  0  0  0  0  0  0  0  0  0  0  0
    0.0839    2.7276   -0.0591 C   0  0  0  0  0  0  0  0  0  0  0  0
    1.6212    3.5665   -0.0452 Cl  0  0  0  0  0  0  0  0  0  0  0  0
   -1.3775    3.6482   -0.1171 Cl  0  0  0  0  0  0  0  0  0  0  0  0
    1.2398    0.6429    0.0309 C   0  0  0  0  0  0  0  0  0  0  0  0
    2.3056    0.9298    0.8583 C   0  0  0  0  0  0  0  0  0  0  0  0
    3.4009    0.1067    0.7517 C   0  0  0  0  0  0  0  0  0  0  0  0
    3.4895   -0.9618   -0.1140 C   0  0  0  0  0  0  0  0  0  0  0  0
    4.6285   -1.7548   -0.1756 O   0  0  0  0  0  0  0  0  0  0  0  0
    2.4247   -1.2416   -0.9326 C   0  0  0  0  0  0  0  0  0  0  0  0
    1.3011   -0.4415   -0.8631 C   0  0  0  0  0  0  0  0  0  0  0  0
   -4.6186   -2.5959    0.4836 H   0  0  0  0  0  0  0  0  0  0  0  0
   -2.6079   -1.9065    1.7502 H   0  0  0  0  0  0  0  0  0  0  0  0
   -0.6019   -0.5115    1.6632 H   0  0  0  0  0  0  0  0  0  0  0  0
   -2.1434    1.6933   -1.7132 H   0  0  0  0  0  0  0  0  0  0  0  0
   -4.1669    0.2910   -1.6121 H   0  0  0  0  0  0  0  0  0  0  0  0
    2.2422    1.7507    1.5409 H   0  0  0  0  0  0  0  0  0  0  0  0
    4.2522    0.3161    1.3956 H   0  0  0  0  0  0  0  0  0  0  0  0
    4.5639   -2.6793    0.1806 H   0  0  0  0  0  0  0  0  0  0  0  0
    2.4150   -2.0694   -1.6542 H   0  0  0  0  0  0  0  0  0  0  0  0
    0.4524   -0.6662   -1.5260 H   0  0  0  0  0  0  0  0  0  0  0  0
  1  2  1  0
  2  3  2  0
  3  4  1  0
  4  5  2  0
  5  6  1  0
  6  7  2  0
  5  8  1  0
  8  9  2  3
  9 10  1  0
  9 11  1  0
  8 12  1  0
 12 13  2  0
 13 14  1  0
 14 15  2  0
 15 16  1  0
 15 17  1  0
 17 18  2  0
  7  2  1  0
 18 12  1  0
  1 19  1  0
  3 20  1  0
  4 21  1  0
  6 22  1  0
  7 23  1  0
 13 24  1  0
 14 25  1  0
 16 26  1  0
 17 27  1  0
 18 28  1  0
M  END
>  <Batch_No>  (251) 
5180041

>  <EC50_nM>  (251) 
ND

>  <Set>  (251) 
Probe-like

>  <Molecular_Weight>  (251) 
281.134

>  <ALogP>  (251) 
4.117

$$$$
MMV665934
     RDKit          3D

 30 33  0  0  0  0  0  0  0  0999 V2000
    7.4530   -0.7815   -0.2446 Br  0  0  0  0  0  0  0  0  0  0  0  0
    5.5622   -0.5217   -0.1803 C   0  0  0  0  0  0  0  0  0  0  0  0
    4.9965    0.6579    0.2905 C   0  0  0  0  0  0  0  0  0  0  0  0
    3.6100    0.8285    0.3295 C   0  0  0  0  0  0  0  0  0  0  0  0
    2.7642   -0.1666   -0.0972 C   0  0  0  0  0  0  0  0  0  0  0  0
    3.3196   -1.3349   -0.5635 C   0  0  0  0  0  0  0  0  0  0  0  0
    4.7043   -1.5317   -0.6133 C   0  0  0  0  0  0  0  0  0  0  0  0
    1.3319    0.0806   -0.0277 C   0  0  0  0  0  0  0  0  0  0  0  0
    0.3784   -0.8325   -0.4232 C   0  0  0  0  0  0  0  0  0  0  0  0
   -0.9603   -0.5085   -0.3203 C   0  0  0  0  0  0  0  0  0  0  0  0
   -2.1445   -1.2850   -0.6650 C   0  0  0  0  0  0  0  0  0  0  0  0
   -2.2389   -2.4430   -1.1418 O   0  0  0  0  0  0  0  0  0  0  0  0
   -3.2874   -0.4274   -0.3390 C   0  0  0  0  0  0  0  0  0  0  0  0
   -4.6572   -0.5902   -0.4363 C   0  0  0  0  0  0  0  0  0  0  0  0
   -5.5100    0.4176   -0.0422 C   0  0  0  0  0  0  0  0  0  0  0  0
   -4.9891    1.6082    0.4575 C   0  0  0  0  0  0  0  0  0  0  0  0
   -3.6167    1.7964    0.5652 C   0  0  0  0  0  0  0  0  0  0  0  0
   -2.8082    0.7601    0.1584 C   0  0  0  0  0  0  0  0  0  0  0  0
   -1.3322    0.7238    0.1765 C   0  0  0  0  0  0  0  0  0  0  0  0
   -0.3762    1.5785    0.5482 N   0  0  0  0  0  0  0  0  0  0  0  0
    0.9247    1.2668    0.4494 N   0  0  0  0  0  0  0  0  0  0  0  0
    5.6715    1.4508    0.6305 H   0  0  0  0  0  0  0  0  0  0  0  0
    3.2572    1.7881    0.7149 H   0  0  0  0  0  0  0  0  0  0  0  0
    2.6768   -2.1335   -0.9051 H   0  0  0  0  0  0  0  0  0  0  0  0
    5.0690   -2.4776   -0.9928 H   0  0  0  0  0  0  0  0  0  0  0  0
    0.6757   -1.7839   -0.8066 H   0  0  0  0  0  0  0  0  0  0  0  0
   -4.9980   -1.5354   -0.8313 H   0  0  0  0  0  0  0  0  0  0  0  0
   -6.5632    0.2774   -0.1231 H   0  0  0  0  0  0  0  0  0  0  0  0
   -5.6653    2.3920    0.7636 H   0  0  0  0  0  0  0  0  0  0  0  0
   -3.2480    2.7268    0.9548 H   0  0  0  0  0  0  0  0  0  0  0  0
  1  2  1  0
  2  3  2  0
  3  4  1  0
  4  5  2  0
  5  6  1  0
  6  7  2  0
  5  8  1  0
  8  9  2  0
  9 10  1  0
 10 11  1  0
 11 12  2  0
 11 13  1  0
 13 14  2  0
 14 15  1  0
 15 16  2  0
 16 17  1  0
 17 18  2  0
 18 19  1  0
 19 20  1  0
 20 21  2  0
  7  2  1  0
 21  8  1  0
 19 10  2  0
 18 13  1  0
  3 22  1  0
  4 23  1  0
  6 24  1  0
  7 25  1  0
  9 26  1  0
 14 27  1  0
 15 28  1  0
 16 29  1  0
 17 30  1  0
M  END
>  <Batch_No>  (252) 
11K-006

>  <EC50_nM>  (252) 
1070

>  <Set>  (252) 
Probe-like

>  <Molecular_Weight>  (252) 
337.17016

>  <ALogP>  (252) 
4.428

$$$$
MMV665994
     RDKit          3D

 28 29  0  0  0  0  0  0  0  0999 V2000
    1.3027    2.5311    0.9755 C   0  0  0  0  0  0  0  0  0  0  0  0
    0.3817    1.4078    0.6819 C   0  0  0  0  0  0  0  0  0  0  0  0
   -0.9354    1.6522    0.4532 N   0  0  0  0  0  0  0  0  0  0  0  0
   -1.8411    0.7065    0.1888 C   0  0  0  0  0  0  0  0  0  0  0  0
   -3.1400    1.1116   -0.0225 C   0  0  0  0  0  0  0  0  0  0  0  0
   -4.0773    0.1324   -0.2971 C   0  0  0  0  0  0  0  0  0  0  0  0
   -3.7067   -1.2005   -0.3536 C   0  0  0  0  0  0  0  0  0  0  0  0
   -2.3934   -1.5529   -0.1347 C   0  0  0  0  0  0  0  0  0  0  0  0
   -1.4316   -0.6059    0.1414 C   0  0  0  0  0  0  0  0  0  0  0  0
   -0.1094   -0.9256    0.3645 C   0  0  0  0  0  0  0  0  0  0  0  0
    0.3278   -2.2153    0.3257 O   0  0  0  0  0  0  0  0  0  0  0  0
    0.8116    0.0964    0.6385 C   0  0  0  0  0  0  0  0  0  0  0  0
    2.2318   -0.2670    0.8614 C   0  0  0  0  0  0  0  0  0  0  0  0
    3.0705   -0.0163   -0.3294 C   0  0  0  0  0  0  0  0  0  0  0  0
    3.7227   -1.0301   -0.9156 C   0  0  0  0  0  0  0  0  0  0  0  0
    3.5969   -2.6822   -0.2831 Cl  0  0  0  0  0  0  0  0  0  0  0  0
    4.7256   -0.8069   -2.3303 Cl  0  0  0  0  0  0  0  0  0  0  0  0
    1.8050    2.3886    1.9575 H   0  0  0  0  0  0  0  0  0  0  0  0
    1.9774    2.7455    0.1429 H   0  0  0  0  0  0  0  0  0  0  0  0
    0.6773    3.4625    1.1192 H   0  0  0  0  0  0  0  0  0  0  0  0
   -3.3984    2.1458    0.0266 H   0  0  0  0  0  0  0  0  0  0  0  0
   -5.0956    0.4574   -0.4620 H   0  0  0  0  0  0  0  0  0  0  0  0
   -4.4958   -1.9074   -0.5730 H   0  0  0  0  0  0  0  0  0  0  0  0
   -2.1042   -2.5825   -0.1780 H   0  0  0  0  0  0  0  0  0  0  0  0
   -0.1354   -2.9925   -0.0721 H   0  0  0  0  0  0  0  0  0  0  0  0
    2.6801    0.3250    1.6955 H   0  0  0  0  0  0  0  0  0  0  0  0
    2.3378   -1.3310    1.1476 H   0  0  0  0  0  0  0  0  0  0  0  0
    3.2154    0.9534   -0.7912 H   0  0  0  0  0  0  0  0  0  0  0  0
  1  2  1  0
  2  3  2  0
  3  4  1  0
  4  5  2  0
  5  6  1  0
  6  7  2  0
  7  8  1  0
  8  9  2  0
  9 10  1  0
 10 11  1  0
 10 12  2  0
 12 13  1  0
 13 14  1  0
 14 15  2  3
 15 16  1  0
 15 17  1  0
 12  2  1  0
  9  4  1  0
  1 18  1  0
  1 19  1  0
  1 20  1  0
  5 21  1  0
  6 22  1  0
  7 23  1  0
  8 24  1  0
 11 25  1  0
 13 26  1  0
 13 27  1  0
 14 28  1  0
M  END
>  <Batch_No>  (253) 
5795856

>  <EC50_nM>  (253) 
835.5

>  <Set>  (253) 
Probe-like

>  <Molecular_Weight>  (253) 
268.13854

>  <ALogP>  (253) 
3.805

$$$$
MMV665980
     RDKit          3D

 51 53  0  0  0  0  0  0  0  0999 V2000
   -3.7327   -0.6070   -0.5304 O   0  0  0  0  0  0  0  0  0  0  0  0
   -3.0485   -0.0814    0.5482 C   0  0  0  0  0  0  0  0  0  0  0  0
   -4.0533    0.7824    1.3290 C   0  0  0  0  0  0  0  0  0  0  0  0
   -4.4383    1.9842    0.5134 C   0  0  0  0  0  0  0  0  0  0  0  0
   -3.8844    1.9799   -0.8827 C   0  0  0  0  0  0  0  0  0  0  0  0
   -2.3958    1.7084   -0.9215 C   0  0  0  0  0  0  0  0  0  0  0  0
   -1.9381    0.8506    0.2015 C   0  0  0  0  0  0  0  0  0  0  0  0
   -0.6144    0.1037   -0.0778 C   0  0  0  0  0  0  0  0  0  0  0  0
   -0.2990   -0.6254    1.1661 C   0  0  0  0  0  0  0  0  0  0  0  0
   -0.2953   -2.0983    1.1202 C   0  0  0  0  0  0  0  0  0  0  0  0
   -0.7429   -2.7205   -0.1427 C   0  0  0  0  0  0  0  0  0  0  0  0
   -0.2136   -2.0212   -1.3322 C   0  0  0  0  0  0  0  0  0  0  0  0
   -0.7130   -0.6183   -1.3608 C   0  0  0  0  0  0  0  0  0  0  0  0
    0.3665    1.1661   -0.2363 N   0  0  0  0  0  0  0  0  0  0  0  0
    1.7582    1.0348   -0.2603 C   0  0  0  0  0  0  0  0  0  0  0  0
    2.6332    2.4338   -0.4808 S   0  0  0  0  0  0  0  0  0  0  0  0
    2.5292   -0.1380   -0.1258 N   0  0  0  0  0  0  0  0  0  0  0  0
    3.9869   -0.1064   -0.1685 C   0  0  0  0  0  0  0  0  0  0  0  0
    4.5980    0.2593   -1.3448 C   0  0  0  0  0  0  0  0  0  0  0  0
    5.9572    0.2857   -1.4207 C   0  0  0  0  0  0  0  0  0  0  0  0
    6.7034   -0.0633   -0.2895 C   0  0  0  0  0  0  0  0  0  0  0  0
    6.0979   -0.4313    0.8966 C   0  0  0  0  0  0  0  0  0  0  0  0
    4.7121   -0.4547    0.9621 C   0  0  0  0  0  0  0  0  0  0  0  0
   -4.6498   -0.8895   -0.2892 H   0  0  0  0  0  0  0  0  0  0  0  0
   -2.8000   -0.9143    1.2199 H   0  0  0  0  0  0  0  0  0  0  0  0
   -4.9045    0.2097    1.7038 H   0  0  0  0  0  0  0  0  0  0  0  0
   -3.4913    1.1775    2.2006 H   0  0  0  0  0  0  0  0  0  0  0  0
   -4.2132    2.9496    1.0209 H   0  0  0  0  0  0  0  0  0  0  0  0
   -5.5585    1.9669    0.4270 H   0  0  0  0  0  0  0  0  0  0  0  0
   -4.4492    1.3304   -1.5784 H   0  0  0  0  0  0  0  0  0  0  0  0
   -4.0134    3.0158   -1.2889 H   0  0  0  0  0  0  0  0  0  0  0  0
   -1.8326    2.6874   -0.8925 H   0  0  0  0  0  0  0  0  0  0  0  0
   -2.1975    1.3204   -1.9397 H   0  0  0  0  0  0  0  0  0  0  0  0
   -1.7217    1.4815    1.0874 H   0  0  0  0  0  0  0  0  0  0  0  0
    0.6657   -0.2753    1.5849 H   0  0  0  0  0  0  0  0  0  0  0  0
   -1.0139   -0.3425    2.0149 H   0  0  0  0  0  0  0  0  0  0  0  0
    0.7213   -2.5165    1.3696 H   0  0  0  0  0  0  0  0  0  0  0  0
   -0.9393   -2.5517    1.9299 H   0  0  0  0  0  0  0  0  0  0  0  0
   -0.3788   -3.7918   -0.1235 H   0  0  0  0  0  0  0  0  0  0  0  0
   -1.8502   -2.7330   -0.2136 H   0  0  0  0  0  0  0  0  0  0  0  0
    0.8845   -2.1191   -1.5079 H   0  0  0  0  0  0  0  0  0  0  0  0
   -0.6421   -2.5885   -2.2380 H   0  0  0  0  0  0  0  0  0  0  0  0
   -1.7692   -0.6326   -1.7681 H   0  0  0  0  0  0  0  0  0  0  0  0
   -0.0507   -0.1061   -2.1402 H   0  0  0  0  0  0  0  0  0  0  0  0
   -0.0093    2.1614   -0.3487 H   0  0  0  0  0  0  0  0  0  0  0  0
    2.1642   -1.0963    0.0248 H   0  0  0  0  0  0  0  0  0  0  0  0
    3.9553    0.5169   -2.1764 H   0  0  0  0  0  0  0  0  0  0  0  0
    6.4093    0.5735   -2.3517 H   0  0  0  0  0  0  0  0  0  0  0  0
    7.7933   -0.0224   -0.4016 H   0  0  0  0  0  0  0  0  0  0  0  0
    6.6906   -0.6967    1.7574 H   0  0  0  0  0  0  0  0  0  0  0  0
    4.2276   -0.7377    1.8720 H   0  0  0  0  0  0  0  0  0  0  0  0
  1  2  1  0
  2  3  1  0
  3  4  1  0
  4  5  1  0
  5  6  1  0
  6  7  1  0
  7  8  1  0
  8  9  1  0
  9 10  1  0
 10 11  1  0
 11 12  1  0
 12 13  1  0
  8 14  1  0
 14 15  1  0
 15 16  2  0
 15 17  1  0
 17 18  1  0
 18 19  2  0
 19 20  1  0
 20 21  2  0
 21 22  1  0
 22 23  2  0
  7  2  1  0
 13  8  1  0
 23 18  1  0
  1 24  1  0
  2 25  1  0
  3 26  1  0
  3 27  1  0
  4 28  1  0
  4 29  1  0
  5 30  1  0
  5 31  1  0
  6 32  1  0
  6 33  1  0
  7 34  1  0
  9 35  1  0
  9 36  1  0
 10 37  1  0
 10 38  1  0
 11 39  1  0
 11 40  1  0
 12 41  1  0
 12 42  1  0
 13 43  1  0
 13 44  1  0
 14 45  1  0
 17 46  1  0
 19 47  1  0
 20 48  1  0
 21 49  1  0
 22 50  1  0
 23 51  1  0
M  END
>  <Batch_No>  (254) 
5102296

>  <EC50_nM>  (254) 
ND

>  <Set>  (254) 
Probe-like

>  <Molecular_Weight>  (254) 
332.50342

>  <ALogP>  (254) 
5.184

$$$$
MMV007577
     RDKit          3D

 49 52  0  0  0  0  0  0  0  0999 V2000
    7.3616   -2.6329   -0.3132 C   0  0  0  0  0  0  0  0  0  0  0  0
    7.1721   -1.2496   -0.8631 C   0  0  0  0  0  0  0  0  0  0  0  0
    7.8254   -0.9483   -2.0201 C   0  0  0  0  0  0  0  0  0  0  0  0
    7.6747    0.3084   -2.5517 C   0  0  0  0  0  0  0  0  0  0  0  0
    6.8964    1.2396   -1.9494 C   0  0  0  0  0  0  0  0  0  0  0  0
    6.2505    0.9074   -0.7842 C   0  0  0  0  0  0  0  0  0  0  0  0
    6.3468   -0.3367   -0.1802 C   0  0  0  0  0  0  0  0  0  0  0  0
    5.7689   -0.7379    0.9278 O   0  0  0  0  0  0  0  0  0  0  0  0
    4.9731   -0.5126    1.9657 C   0  0  0  0  0  0  0  0  0  0  0  0
    3.5256   -0.2150    1.7953 C   0  0  0  0  0  0  0  0  0  0  0  0
    3.0748    1.2279    0.8692 S   0  0  0  0  0  0  0  0  0  0  0  0
    1.2637    1.3290    0.8311 C   0  0  0  0  0  0  0  0  0  0  0  0
    0.3663    1.7489    1.3913 N   0  0  0  0  0  0  0  0  0  0  0  0
   -0.9393    1.6879    1.1541 C   0  0  0  0  0  0  0  0  0  0  0  0
   -2.0134    2.2253    1.8791 C   0  0  0  0  0  0  0  0  0  0  0  0
   -3.2795    2.0096    1.4038 C   0  0  0  0  0  0  0  0  0  0  0  0
   -3.5861    1.3028    0.2636 C   0  0  0  0  0  0  0  0  0  0  0  0
   -4.9090    1.0936   -0.2076 N   0  0  0  0  0  0  0  0  0  0  0  0
   -5.6222   -0.0532    0.2317 C   0  0  0  0  0  0  0  0  0  0  0  0
   -5.0602   -0.8505    1.0262 O   0  0  0  0  0  0  0  0  0  0  0  0
   -6.9751   -0.3683   -0.1824 C   0  0  0  0  0  0  0  0  0  0  0  0
   -7.5601   -1.5082    0.3116 C   0  0  0  0  0  0  0  0  0  0  0  0
   -8.8589   -1.8711   -0.0454 C   0  0  0  0  0  0  0  0  0  0  0  0
   -9.5721   -1.0588   -0.9198 C   0  0  0  0  0  0  0  0  0  0  0  0
   -9.0044    0.0795   -1.4207 C   0  0  0  0  0  0  0  0  0  0  0  0
   -7.7149    0.4105   -1.0466 C   0  0  0  0  0  0  0  0  0  0  0  0
   -2.5251    0.7604   -0.4706 C   0  0  0  0  0  0  0  0  0  0  0  0
   -1.2659    0.9940    0.0319 C   0  0  0  0  0  0  0  0  0  0  0  0
    0.3737    0.4519   -0.6390 S   0  0  0  0  0  0  0  0  0  0  0  0
    6.8196   -3.3798   -0.9450 H   0  0  0  0  0  0  0  0  0  0  0  0
    8.4397   -2.9186   -0.4258 H   0  0  0  0  0  0  0  0  0  0  0  0
    7.1358   -2.6893    0.7525 H   0  0  0  0  0  0  0  0  0  0  0  0
    8.4526   -1.6659   -2.5248 H   0  0  0  0  0  0  0  0  0  0  0  0
    8.1802    0.5734   -3.4667 H   0  0  0  0  0  0  0  0  0  0  0  0
    6.7963    2.2361   -2.3997 H   0  0  0  0  0  0  0  0  0  0  0  0
    5.6523    1.6808   -0.3290 H   0  0  0  0  0  0  0  0  0  0  0  0
    5.0099   -1.3050    2.7812 H   0  0  0  0  0  0  0  0  0  0  0  0
    5.3987    0.3887    2.5434 H   0  0  0  0  0  0  0  0  0  0  0  0
    2.9814   -1.0996    1.3388 H   0  0  0  0  0  0  0  0  0  0  0  0
    3.0327   -0.1288    2.8128 H   0  0  0  0  0  0  0  0  0  0  0  0
   -1.8954    2.7872    2.7717 H   0  0  0  0  0  0  0  0  0  0  0  0
   -4.1290    2.4290    1.9684 H   0  0  0  0  0  0  0  0  0  0  0  0
   -5.3753    1.7626   -0.8718 H   0  0  0  0  0  0  0  0  0  0  0  0
   -7.0632   -2.1882    0.9974 H   0  0  0  0  0  0  0  0  0  0  0  0
   -9.3051   -2.7665    0.3488 H   0  0  0  0  0  0  0  0  0  0  0  0
  -10.5795   -1.3388   -1.1977 H   0  0  0  0  0  0  0  0  0  0  0  0
   -9.5922    0.6792   -2.0945 H   0  0  0  0  0  0  0  0  0  0  0  0
   -7.2792    1.3141   -1.4512 H   0  0  0  0  0  0  0  0  0  0  0  0
   -2.6676    0.1959   -1.3700 H   0  0  0  0  0  0  0  0  0  0  0  0
  1  2  1  0
  2  3  2  0
  3  4  1  0
  4  5  2  0
  5  6  1  0
  6  7  2  0
  7  8  1  0
  8  9  1  0
  9 10  1  0
 10 11  1  0
 11 12  1  0
 12 13  2  0
 13 14  1  0
 14 15  2  0
 15 16  1  0
 16 17  2  0
 17 18  1  0
 18 19  1  0
 19 20  2  0
 19 21  1  0
 21 22  2  0
 22 23  1  0
 23 24  2  0
 24 25  1  0
 25 26  2  0
 17 27  1  0
 27 28  2  0
 28 29  1  0
  7  2  1  0
 29 12  1  0
 28 14  1  0
 26 21  1  0
  1 30  1  0
  1 31  1  0
  1 32  1  0
  3 33  1  0
  4 34  1  0
  5 35  1  0
  6 36  1  0
  9 37  1  0
  9 38  1  0
 10 39  1  0
 10 40  1  0
 15 41  1  0
 16 42  1  0
 18 43  1  0
 22 44  1  0
 23 45  1  0
 24 46  1  0
 25 47  1  0
 26 48  1  0
 27 49  1  0
M  END
>  <Batch_No>  (255) 
D336-4049

>  <EC50_nM>  (255) 
1120

>  <Set>  (255) 
Probe-like

>  <Molecular_Weight>  (255) 
420.5471

>  <ALogP>  (255) 
5.9

$$$$
MMV019995
     RDKit          3D

 61 64  0  0  0  0  0  0  0  0999 V2000
  -10.1341    3.2916   -0.5728 Br  0  0  0  0  0  0  0  0  0  0  0  0
   -8.7170    2.3030    0.2608 C   0  0  0  0  0  0  0  0  0  0  0  0
   -8.6799    2.1905    1.6339 C   0  0  0  0  0  0  0  0  0  0  0  0
   -7.6512    1.4738    2.2147 C   0  0  0  0  0  0  0  0  0  0  0  0
   -6.6957    0.8928    1.4347 C   0  0  0  0  0  0  0  0  0  0  0  0
   -5.6826    0.1844    2.0485 O   0  0  0  0  0  0  0  0  0  0  0  0
   -4.6355   -0.4663    1.3980 C   0  0  0  0  0  0  0  0  0  0  0  0
   -4.7099   -0.3224   -0.0754 C   0  0  0  0  0  0  0  0  0  0  0  0
   -5.6641    0.3483   -0.7006 C   0  0  0  0  0  0  0  0  0  0  0  0
   -6.7162    0.9945    0.0605 C   0  0  0  0  0  0  0  0  0  0  0  0
   -7.7428    1.7092   -0.5114 C   0  0  0  0  0  0  0  0  0  0  0  0
   -3.6803   -0.9486   -0.8988 C   0  0  0  0  0  0  0  0  0  0  0  0
   -3.7369   -0.8303   -2.1332 O   0  0  0  0  0  0  0  0  0  0  0  0
   -2.6076   -1.6968   -0.2952 N   0  0  0  0  0  0  0  0  0  0  0  0
   -1.6230   -2.2901   -1.1619 C   0  0  0  0  0  0  0  0  0  0  0  0
   -0.8751   -1.3210   -2.0106 C   0  0  0  0  0  0  0  0  0  0  0  0
   -0.1149   -0.3028   -1.2063 C   0  0  0  0  0  0  0  0  0  0  0  0
    0.8781   -0.8317   -0.3302 N   0  0  0  0  0  0  0  0  0  0  0  0
    1.5312    0.1750    0.4673 C   0  0  0  0  0  0  0  0  0  0  0  0
    2.6845    0.7937   -0.2605 C   0  0  0  0  0  0  0  0  0  0  0  0
    3.6971   -0.2292   -0.7090 C   0  0  0  0  0  0  0  0  0  0  0  0
    3.1871   -1.6392   -0.5194 C   0  0  0  0  0  0  0  0  0  0  0  0
    1.7449   -1.7705   -0.9596 C   0  0  0  0  0  0  0  0  0  0  0  0
    4.9323   -0.0771   -0.0444 N   0  0  0  0  0  0  0  0  0  0  0  0
    4.9472   -0.1525    1.3730 C   0  0  0  0  0  0  0  0  0  0  0  0
    6.1599   -1.0097    1.7551 C   0  0  0  0  0  0  0  0  0  0  0  0
    7.2077   -0.8195    0.7006 C   0  0  0  0  0  0  0  0  0  0  0  0
    7.2033    0.5615    0.0804 C   0  0  0  0  0  0  0  0  0  0  0  0
    5.8558    0.8720   -0.5744 C   0  0  0  0  0  0  0  0  0  0  0  0
   -9.4202    2.6382    2.2700 H   0  0  0  0  0  0  0  0  0  0  0  0
   -7.6349    1.3936    3.3107 H   0  0  0  0  0  0  0  0  0  0  0  0
   -3.6653   -0.1097    1.7975 H   0  0  0  0  0  0  0  0  0  0  0  0
   -4.6822   -1.5712    1.6059 H   0  0  0  0  0  0  0  0  0  0  0  0
   -5.6958    0.4381   -1.7736 H   0  0  0  0  0  0  0  0  0  0  0  0
   -7.7889    1.8090   -1.5912 H   0  0  0  0  0  0  0  0  0  0  0  0
   -2.5736   -1.7899    0.7654 H   0  0  0  0  0  0  0  0  0  0  0  0
   -2.0868   -3.0507   -1.8078 H   0  0  0  0  0  0  0  0  0  0  0  0
   -0.8946   -2.8137   -0.5112 H   0  0  0  0  0  0  0  0  0  0  0  0
   -0.1400   -1.9229   -2.5823 H   0  0  0  0  0  0  0  0  0  0  0  0
   -1.4992   -0.8477   -2.8023 H   0  0  0  0  0  0  0  0  0  0  0  0
    0.3742    0.4256   -1.8972 H   0  0  0  0  0  0  0  0  0  0  0  0
   -0.8447    0.3223   -0.6131 H   0  0  0  0  0  0  0  0  0  0  0  0
    1.7510   -0.1439    1.4941 H   0  0  0  0  0  0  0  0  0  0  0  0
    0.7686    0.9958    0.5820 H   0  0  0  0  0  0  0  0  0  0  0  0
    2.3322    1.3433   -1.1555 H   0  0  0  0  0  0  0  0  0  0  0  0
    3.1480    1.5698    0.3982 H   0  0  0  0  0  0  0  0  0  0  0  0
    3.9007   -0.1176   -1.8135 H   0  0  0  0  0  0  0  0  0  0  0  0
    3.3364   -1.9213    0.5371 H   0  0  0  0  0  0  0  0  0  0  0  0
    3.8249   -2.3007   -1.1394 H   0  0  0  0  0  0  0  0  0  0  0  0
    1.7534   -1.5065   -2.0606 H   0  0  0  0  0  0  0  0  0  0  0  0
    1.4643   -2.8259   -0.8401 H   0  0  0  0  0  0  0  0  0  0  0  0
    5.1566    0.8638    1.8032 H   0  0  0  0  0  0  0  0  0  0  0  0
    4.0689   -0.5779    1.8522 H   0  0  0  0  0  0  0  0  0  0  0  0
    6.5014   -0.7741    2.7815 H   0  0  0  0  0  0  0  0  0  0  0  0
    5.7856   -2.0536    1.7040 H   0  0  0  0  0  0  0  0  0  0  0  0
    8.2126   -0.9725    1.1251 H   0  0  0  0  0  0  0  0  0  0  0  0
    7.0570   -1.5663   -0.1259 H   0  0  0  0  0  0  0  0  0  0  0  0
    8.0330    0.5692   -0.6532 H   0  0  0  0  0  0  0  0  0  0  0  0
    7.4421    1.2849    0.8906 H   0  0  0  0  0  0  0  0  0  0  0  0
    6.0249    0.7477   -1.6616 H   0  0  0  0  0  0  0  0  0  0  0  0
    5.6280    1.9320   -0.3527 H   0  0  0  0  0  0  0  0  0  0  0  0
  1  2  1  0
  2  3  2  0
  3  4  1  0
  4  5  2  0
  5  6  1  0
  6  7  1  0
  7  8  1  0
  8  9  2  0
  9 10  1  0
 10 11  2  0
  8 12  1  0
 12 13  2  0
 12 14  1  0
 14 15  1  0
 15 16  1  0
 16 17  1  0
 17 18  1  0
 18 19  1  0
 19 20  1  0
 20 21  1  0
 21 22  1  0
 22 23  1  0
 21 24  1  0
 24 25  1  0
 25 26  1  0
 26 27  1  0
 27 28  1  0
 28 29  1  0
 11  2  1  0
 10  5  1  0
 23 18  1  0
 29 24  1  0
  3 30  1  0
  4 31  1  0
  7 32  1  0
  7 33  1  0
  9 34  1  0
 11 35  1  0
 14 36  1  0
 15 37  1  0
 15 38  1  0
 16 39  1  0
 16 40  1  0
 17 41  1  0
 17 42  1  0
 19 43  1  0
 19 44  1  0
 20 45  1  0
 20 46  1  0
 21 47  1  0
 22 48  1  0
 22 49  1  0
 23 50  1  0
 23 51  1  0
 25 52  1  0
 25 53  1  0
 26 54  1  0
 26 55  1  0
 27 56  1  0
 27 57  1  0
 28 58  1  0
 28 59  1  0
 29 60  1  0
 29 61  1  0
M  END
>  <Batch_No>  (256) 
G669-1279

>  <EC50_nM>  (256) 
563

>  <Set>  (256) 
Probe-like

>  <Molecular_Weight>  (256) 
462.42307

>  <ALogP>  (256) 
3.18

$$$$
MMV007208
     RDKit          3D

 71 75  0  0  0  0  0  0  0  0999 V2000
    4.6589   -1.5296   -3.4749 C   0  0  0  0  0  0  0  0  0  0  0  0
    3.4589   -1.0587   -2.8551 O   0  0  0  0  0  0  0  0  0  0  0  0
    3.4639   -0.9352   -1.4725 C   0  0  0  0  0  0  0  0  0  0  0  0
    4.6054   -1.2629   -0.7336 C   0  0  0  0  0  0  0  0  0  0  0  0
    4.5480   -1.1185    0.6373 C   0  0  0  0  0  0  0  0  0  0  0  0
    3.4356   -0.6734    1.3033 C   0  0  0  0  0  0  0  0  0  0  0  0
    3.3954   -0.5316    2.6822 O   0  0  0  0  0  0  0  0  0  0  0  0
    4.5587   -0.8673    3.4101 C   0  0  0  0  0  0  0  0  0  0  0  0
    2.3103   -0.3506    0.5800 C   0  0  0  0  0  0  0  0  0  0  0  0
    2.3309   -0.4838   -0.8116 C   0  0  0  0  0  0  0  0  0  0  0  0
    1.0412    0.1211    1.1716 C   0  0  0  0  0  0  0  0  0  0  0  0
    0.5226    1.3187    0.4791 C   0  0  0  0  0  0  0  0  0  0  0  0
   -0.6742    1.4641   -0.0333 C   0  0  0  0  0  0  0  0  0  0  0  0
   -1.1310    2.7151   -0.7249 C   0  0  0  0  0  0  0  0  0  0  0  0
   -0.3400    3.9285   -0.3092 C   0  0  0  0  0  0  0  0  0  0  0  0
   -0.6934    4.3936    1.0794 C   0  0  0  0  0  0  0  0  0  0  0  0
   -0.6765    5.0249   -1.3106 C   0  0  0  0  0  0  0  0  0  0  0  0
    1.1438    3.6583   -0.4456 C   0  0  0  0  0  0  0  0  0  0  0  0
    1.4398    2.4528    0.3562 C   0  0  0  0  0  0  0  0  0  0  0  0
    2.5534    2.4290    0.9568 O   0  0  0  0  0  0  0  0  0  0  0  0
   -1.6215    0.4143    0.0472 N   0  0  0  0  0  0  0  0  0  0  0  0
   -1.2221   -0.7790    0.6959 C   0  0  0  0  0  0  0  0  0  0  0  0
    0.0008   -0.9098    1.2112 C   0  0  0  0  0  0  0  0  0  0  0  0
    0.2533   -2.2112    1.8555 C   0  0  0  0  0  0  0  0  0  0  0  0
    0.9210   -2.2671    2.9203 O   0  0  0  0  0  0  0  0  0  0  0  0
   -0.2736   -3.4722    1.2629 C   0  0  0  0  0  0  0  0  0  0  0  0
   -1.6043   -3.2599    0.5886 C   0  0  0  0  0  0  0  0  0  0  0  0
   -2.6100   -4.2449    1.1485 C   0  0  0  0  0  0  0  0  0  0  0  0
   -1.4899   -3.5610   -0.8903 C   0  0  0  0  0  0  0  0  0  0  0  0
   -2.1773   -1.9013    0.8041 C   0  0  0  0  0  0  0  0  0  0  0  0
   -2.9368    0.4905   -0.4810 C   0  0  0  0  0  0  0  0  0  0  0  0
   -3.2337    0.1121   -1.7506 C   0  0  0  0  0  0  0  0  0  0  0  0
   -4.5338    0.2030   -2.2268 C   0  0  0  0  0  0  0  0  0  0  0  0
   -5.5331    0.6895   -1.3809 C   0  0  0  0  0  0  0  0  0  0  0  0
   -7.1512    0.7869   -2.0189 Cl  0  0  0  0  0  0  0  0  0  0  0  0
   -5.2179    1.0720   -0.0889 C   0  0  0  0  0  0  0  0  0  0  0  0
   -6.4643    1.6769    0.9602 Cl  0  0  0  0  0  0  0  0  0  0  0  0
   -3.9217    0.9746    0.3659 C   0  0  0  0  0  0  0  0  0  0  0  0
    5.5134   -0.8706   -3.1774 H   0  0  0  0  0  0  0  0  0  0  0  0
    4.5434   -1.4716   -4.5812 H   0  0  0  0  0  0  0  0  0  0  0  0
    4.8843   -2.5809   -3.2172 H   0  0  0  0  0  0  0  0  0  0  0  0
    5.4762   -1.6124   -1.2659 H   0  0  0  0  0  0  0  0  0  0  0  0
    5.4276   -1.3696    1.2227 H   0  0  0  0  0  0  0  0  0  0  0  0
    5.4147   -0.2519    3.0306 H   0  0  0  0  0  0  0  0  0  0  0  0
    4.4662   -0.6833    4.4869 H   0  0  0  0  0  0  0  0  0  0  0  0
    4.8438   -1.9393    3.2619 H   0  0  0  0  0  0  0  0  0  0  0  0
    1.4818   -0.2439   -1.4038 H   0  0  0  0  0  0  0  0  0  0  0  0
    1.2542    0.4317    2.2267 H   0  0  0  0  0  0  0  0  0  0  0  0
   -0.9795    2.6144   -1.8323 H   0  0  0  0  0  0  0  0  0  0  0  0
   -2.1914    2.9308   -0.5277 H   0  0  0  0  0  0  0  0  0  0  0  0
    0.1804    4.6993    1.6618 H   0  0  0  0  0  0  0  0  0  0  0  0
   -1.3023    3.6038    1.5901 H   0  0  0  0  0  0  0  0  0  0  0  0
   -1.3497    5.2872    1.0063 H   0  0  0  0  0  0  0  0  0  0  0  0
   -1.5948    5.5726   -1.0580 H   0  0  0  0  0  0  0  0  0  0  0  0
   -0.7486    4.6238   -2.3332 H   0  0  0  0  0  0  0  0  0  0  0  0
    0.1647    5.7692   -1.3477 H   0  0  0  0  0  0  0  0  0  0  0  0
    1.6482    4.5565   -0.0227 H   0  0  0  0  0  0  0  0  0  0  0  0
    1.3715    3.5051   -1.5090 H   0  0  0  0  0  0  0  0  0  0  0  0
    0.4345   -3.9383    0.5386 H   0  0  0  0  0  0  0  0  0  0  0  0
   -0.3889   -4.1941    2.0969 H   0  0  0  0  0  0  0  0  0  0  0  0
   -2.3014   -5.2568    0.8237 H   0  0  0  0  0  0  0  0  0  0  0  0
   -2.5885   -4.2476    2.2692 H   0  0  0  0  0  0  0  0  0  0  0  0
   -3.6234   -3.9572    0.7929 H   0  0  0  0  0  0  0  0  0  0  0  0
   -1.1422   -4.5825   -1.0883 H   0  0  0  0  0  0  0  0  0  0  0  0
   -2.5420   -3.4753   -1.2821 H   0  0  0  0  0  0  0  0  0  0  0  0
   -0.8883   -2.7727   -1.3683 H   0  0  0  0  0  0  0  0  0  0  0  0
   -2.9830   -1.7705    0.0252 H   0  0  0  0  0  0  0  0  0  0  0  0
   -2.6944   -1.7890    1.7660 H   0  0  0  0  0  0  0  0  0  0  0  0
   -2.4693   -0.2684   -2.4215 H   0  0  0  0  0  0  0  0  0  0  0  0
   -4.7605   -0.1055   -3.2529 H   0  0  0  0  0  0  0  0  0  0  0  0
   -3.6921    1.2790    1.3822 H   0  0  0  0  0  0  0  0  0  0  0  0
  1  2  1  0
  2  3  1  0
  3  4  2  0
  4  5  1  0
  5  6  2  0
  6  7  1  0
  7  8  1  0
  6  9  1  0
  9 10  2  0
  9 11  1  0
 11 12  1  0
 12 13  2  0
 13 14  1  0
 14 15  1  0
 15 16  1  0
 15 17  1  0
 15 18  1  0
 18 19  1  0
 19 20  2  0
 13 21  1  0
 21 22  1  0
 22 23  2  0
 23 24  1  0
 24 25  2  0
 24 26  1  0
 26 27  1  0
 27 28  1  0
 27 29  1  0
 27 30  1  0
 21 31  1  0
 31 32  2  0
 32 33  1  0
 33 34  2  0
 34 35  1  0
 34 36  1  0
 36 37  1  0
 36 38  2  0
 10  3  1  0
 23 11  1  0
 19 12  1  0
 30 22  1  0
 38 31  1  0
  1 39  1  0
  1 40  1  0
  1 41  1  0
  4 42  1  0
  5 43  1  0
  8 44  1  0
  8 45  1  0
  8 46  1  0
 10 47  1  0
 11 48  1  0
 14 49  1  0
 14 50  1  0
 16 51  1  0
 16 52  1  0
 16 53  1  0
 17 54  1  0
 17 55  1  0
 17 56  1  0
 18 57  1  0
 18 58  1  0
 26 59  1  0
 26 60  1  0
 28 61  1  0
 28 62  1  0
 28 63  1  0
 29 64  1  0
 29 65  1  0
 29 66  1  0
 30 67  1  0
 30 68  1  0
 32 69  1  0
 33 70  1  0
 38 71  1  0
M  END
>  <Batch_No>  (257) 
C047-1135

>  <EC50_nM>  (257) 
912

>  <Set>  (257) 
Probe-like

>  <Molecular_Weight>  (257) 
554.50401

>  <ALogP>  (257) 
6.767

$$$$
MMV000442
     RDKit          3D

 44 46  0  0  0  0  0  0  0  0999 V2000
   -4.9537   -0.6400   -0.8741 C   0  0  0  0  0  0  0  0  0  0  0  0
   -4.1734    0.5848   -0.3806 C   0  0  0  0  0  0  0  0  0  0  0  0
   -4.2358    1.5940   -1.4924 C   0  0  0  0  0  0  0  0  0  0  0  0
   -4.9322    1.1195    0.7991 C   0  0  0  0  0  0  0  0  0  0  0  0
   -2.8184    0.1562   -0.0122 C   0  0  0  0  0  0  0  0  0  0  0  0
   -2.5817   -0.2538    1.2858 C   0  0  0  0  0  0  0  0  0  0  0  0
   -1.3160   -0.6748    1.7059 C   0  0  0  0  0  0  0  0  0  0  0  0
   -0.2673   -0.6776    0.7806 C   0  0  0  0  0  0  0  0  0  0  0  0
    1.0158   -1.0834    1.1290 O   0  0  0  0  0  0  0  0  0  0  0  0
    1.8132   -1.5815    0.0402 C   0  0  0  0  0  0  0  0  0  0  0  0
    1.8636   -0.5218   -0.9393 N   0  0  0  0  0  0  0  0  0  0  0  0
    2.5132    0.6198   -0.3439 C   0  0  0  0  0  0  0  0  0  0  0  0
    3.8915    0.2303    0.0257 C   0  0  0  0  0  0  0  0  0  0  0  0
    4.2591   -0.2729    1.2469 C   0  0  0  0  0  0  0  0  0  0  0  0
    5.5871   -0.6028    1.4707 C   0  0  0  0  0  0  0  0  0  0  0  0
    6.5669   -0.4462    0.5100 C   0  0  0  0  0  0  0  0  0  0  0  0
    8.2387   -0.8557    0.7751 Cl  0  0  0  0  0  0  0  0  0  0  0  0
    6.1922    0.0637   -0.7260 C   0  0  0  0  0  0  0  0  0  0  0  0
    4.8706    0.3954   -0.9581 C   0  0  0  0  0  0  0  0  0  0  0  0
    0.5778   -0.2619   -1.5028 C   0  0  0  0  0  0  0  0  0  0  0  0
   -0.5252   -0.2643   -0.5104 C   0  0  0  0  0  0  0  0  0  0  0  0
   -1.7688    0.1535   -0.9384 C   0  0  0  0  0  0  0  0  0  0  0  0
   -6.0168   -0.4238   -1.0372 H   0  0  0  0  0  0  0  0  0  0  0  0
   -4.7955   -1.4641   -0.1312 H   0  0  0  0  0  0  0  0  0  0  0  0
   -4.4425   -0.9802   -1.7922 H   0  0  0  0  0  0  0  0  0  0  0  0
   -3.9291    2.6068   -1.1872 H   0  0  0  0  0  0  0  0  0  0  0  0
   -3.7675    1.2087   -2.4026 H   0  0  0  0  0  0  0  0  0  0  0  0
   -5.3341    1.6868   -1.7389 H   0  0  0  0  0  0  0  0  0  0  0  0
   -5.8675    1.6001    0.3868 H   0  0  0  0  0  0  0  0  0  0  0  0
   -4.3986    1.9165    1.3550 H   0  0  0  0  0  0  0  0  0  0  0  0
   -5.2961    0.3110    1.4747 H   0  0  0  0  0  0  0  0  0  0  0  0
   -3.4012   -0.2460    1.9880 H   0  0  0  0  0  0  0  0  0  0  0  0
   -1.1297   -0.9949    2.7177 H   0  0  0  0  0  0  0  0  0  0  0  0
    1.2485   -2.4131   -0.4614 H   0  0  0  0  0  0  0  0  0  0  0  0
    2.7673   -1.9911    0.3454 H   0  0  0  0  0  0  0  0  0  0  0  0
    2.5488    1.4954   -1.0220 H   0  0  0  0  0  0  0  0  0  0  0  0
    1.9997    0.9588    0.5933 H   0  0  0  0  0  0  0  0  0  0  0  0
    3.5183   -0.4028    2.0089 H   0  0  0  0  0  0  0  0  0  0  0  0
    5.8875   -1.0012    2.4322 H   0  0  0  0  0  0  0  0  0  0  0  0
    6.9239    0.2117   -1.5305 H   0  0  0  0  0  0  0  0  0  0  0  0
    4.6185    0.7877   -1.9281 H   0  0  0  0  0  0  0  0  0  0  0  0
    0.6363    0.7824   -1.9314 H   0  0  0  0  0  0  0  0  0  0  0  0
    0.3353   -0.8945   -2.3752 H   0  0  0  0  0  0  0  0  0  0  0  0
   -1.9227    0.4653   -1.9488 H   0  0  0  0  0  0  0  0  0  0  0  0
  1  2  1  0
  2  3  1  0
  2  4  1  0
  2  5  1  0
  5  6  2  0
  6  7  1  0
  7  8  2  0
  8  9  1  0
  9 10  1  0
 10 11  1  0
 11 12  1  0
 12 13  1  0
 13 14  2  0
 14 15  1  0
 15 16  2  0
 16 17  1  0
 16 18  1  0
 18 19  2  0
 11 20  1  0
 20 21  1  0
 21 22  2  0
 22  5  1  0
 21  8  1  0
 19 13  1  0
  1 23  1  0
  1 24  1  0
  1 25  1  0
  3 26  1  0
  3 27  1  0
  3 28  1  0
  4 29  1  0
  4 30  1  0
  4 31  1  0
  6 32  1  0
  7 33  1  0
 10 34  1  0
 10 35  1  0
 12 36  1  0
 12 37  1  0
 14 38  1  0
 15 39  1  0
 18 40  1  0
 19 41  1  0
 20 42  1  0
 20 43  1  0
 22 44  1  0
M  END
>  <Batch_No>  (258) 
6718-0079

>  <EC50_nM>  (258) 
362

>  <Set>  (258) 
Probe-like

>  <Molecular_Weight>  (258) 
315.83708

>  <ALogP>  (258) 
5.336

$$$$
MMV666124
     RDKit          3D

 40 42  0  0  0  0  0  0  0  0999 V2000
    6.3030   -0.3630   -2.8279 C   0  0  0  0  0  0  0  0  0  0  0  0
    6.3873    0.2655   -1.4891 C   0  0  0  0  0  0  0  0  0  0  0  0
    7.4391    0.8631   -1.1701 O   0  0  0  0  0  0  0  0  0  0  0  0
    5.3028    0.2207   -0.5259 C   0  0  0  0  0  0  0  0  0  0  0  0
    5.4618    0.8307    0.7001 C   0  0  0  0  0  0  0  0  0  0  0  0
    4.4834    0.8349    1.6703 C   0  0  0  0  0  0  0  0  0  0  0  0
    3.2709    0.2113    1.4479 C   0  0  0  0  0  0  0  0  0  0  0  0
    2.3092    0.2493    2.4794 N   0  0  0  0  0  0  0  0  0  0  0  0
    1.0273   -0.3191    2.4513 C   0  0  0  0  0  0  0  0  0  0  0  0
    0.5673   -0.9488    1.4761 O   0  0  0  0  0  0  0  0  0  0  0  0
    0.1117   -0.1919    3.6403 C   0  0  0  0  0  0  0  0  0  0  0  0
   -1.4626   -1.0272    3.2903 S   0  0  0  0  0  0  0  0  0  0  0  0
   -2.3400   -0.2054    2.0050 C   0  0  0  0  0  0  0  0  0  0  0  0
   -3.4648   -0.3980    1.4116 N   0  0  0  0  0  0  0  0  0  0  0  0
   -3.9366    0.3263    0.4827 C   0  0  0  0  0  0  0  0  0  0  0  0
   -3.1860    1.4103    0.0714 N   0  0  0  0  0  0  0  0  0  0  0  0
   -1.7090    1.2775    1.1764 S   0  0  0  0  0  0  0  0  0  0  0  0
   -5.2400    0.0886   -0.1940 C   0  0  0  0  0  0  0  0  0  0  0  0
   -5.6992    0.9092   -1.1922 C   0  0  0  0  0  0  0  0  0  0  0  0
   -6.9028    0.6775   -1.8076 C   0  0  0  0  0  0  0  0  0  0  0  0
   -7.6739   -0.3926   -1.4279 C   0  0  0  0  0  0  0  0  0  0  0  0
   -7.2453   -1.2395   -0.4282 C   0  0  0  0  0  0  0  0  0  0  0  0
   -6.0291   -0.9842    0.1760 C   0  0  0  0  0  0  0  0  0  0  0  0
   -5.4402   -2.0345    1.4547 Cl  0  0  0  0  0  0  0  0  0  0  0  0
    3.1069   -0.3972    0.2301 C   0  0  0  0  0  0  0  0  0  0  0  0
    4.0955   -0.4036   -0.7550 C   0  0  0  0  0  0  0  0  0  0  0  0
    6.8421    0.3363   -3.5265 H   0  0  0  0  0  0  0  0  0  0  0  0
    5.2564   -0.4530   -3.1841 H   0  0  0  0  0  0  0  0  0  0  0  0
    6.7875   -1.3645   -2.8294 H   0  0  0  0  0  0  0  0  0  0  0  0
    6.3913    1.3315    0.9217 H   0  0  0  0  0  0  0  0  0  0  0  0
    4.6949    1.3407    2.6089 H   0  0  0  0  0  0  0  0  0  0  0  0
    2.5658    0.7581    3.3802 H   0  0  0  0  0  0  0  0  0  0  0  0
    0.5891   -0.7623    4.4572 H   0  0  0  0  0  0  0  0  0  0  0  0
   -0.0092    0.8376    3.9761 H   0  0  0  0  0  0  0  0  0  0  0  0
   -5.1136    1.7675   -1.5193 H   0  0  0  0  0  0  0  0  0  0  0  0
   -7.2159    1.3557   -2.5880 H   0  0  0  0  0  0  0  0  0  0  0  0
   -8.6130   -0.5337   -1.9412 H   0  0  0  0  0  0  0  0  0  0  0  0
   -7.8394   -2.0769   -0.1246 H   0  0  0  0  0  0  0  0  0  0  0  0
    2.1979   -0.9040   -0.0263 H   0  0  0  0  0  0  0  0  0  0  0  0
    3.9292   -0.8927   -1.6993 H   0  0  0  0  0  0  0  0  0  0  0  0
  1  2  1  0
  2  3  2  0
  2  4  1  0
  4  5  2  0
  5  6  1  0
  6  7  2  0
  7  8  1  0
  8  9  1  0
  9 10  2  0
  9 11  1  0
 11 12  1  0
 12 13  1  0
 13 14  2  0
 14 15  1  0
 15 16  2  0
 16 17  1  0
 15 18  1  0
 18 19  2  0
 19 20  1  0
 20 21  2  0
 21 22  1  0
 22 23  2  0
 23 24  1  0
  7 25  1  0
 25 26  2  0
 26  4  1  0
 17 13  1  0
 23 18  1  0
  1 27  1  0
  1 28  1  0
  1 29  1  0
  5 30  1  0
  6 31  1  0
  8 32  1  0
 11 33  1  0
 11 34  1  0
 19 35  1  0
 20 36  1  0
 21 37  1  0
 22 38  1  0
 25 39  1  0
 26 40  1  0
M  END
>  <Batch_No>  (259) 
F0698-0401A

>  <EC50_nM>  (259) 
ND

>  <Set>  (259) 
Probe-like

>  <Molecular_Weight>  (259) 
403.90566

>  <ALogP>  (259) 
3.902

$$$$
MMV000444
     RDKit          3D

 56 58  0  0  0  0  0  0  0  0999 V2000
    7.6272   -0.1680   -0.9942 C   0  0  0  0  0  0  0  0  0  0  0  0
    7.0849    1.2213   -0.8317 C   0  0  0  0  0  0  0  0  0  0  0  0
    5.9798    1.2853    0.2003 C   0  0  0  0  0  0  0  0  0  0  0  0
    4.8176    0.3753   -0.2135 C   0  0  0  0  0  0  0  0  0  0  0  0
    3.7664    0.4980    0.8636 C   0  0  0  0  0  0  0  0  0  0  0  0
    2.5929   -0.3011    0.6299 N   0  0  0  0  0  0  0  0  0  0  0  0
    1.5030    0.1289   -0.0491 C   0  0  0  0  0  0  0  0  0  0  0  0
    1.3317    1.3007   -0.5911 N   0  0  0  0  0  0  0  0  0  0  0  0
    0.5712   -0.8349   -0.1049 N   0  0  0  0  0  0  0  0  0  0  0  0
   -0.7248   -0.7417   -0.7475 C   0  0  0  0  0  0  0  0  0  0  0  0
   -1.7827   -0.2288    0.2203 C   0  0  0  0  0  0  0  0  0  0  0  0
   -1.3525    1.0407    0.6346 O   0  0  0  0  0  0  0  0  0  0  0  0
   -3.0575   -0.0235   -0.5743 C   0  0  0  0  0  0  0  0  0  0  0  0
   -4.0647    0.5911    0.2039 O   0  0  0  0  0  0  0  0  0  0  0  0
   -5.2909    0.8281   -0.4375 C   0  0  0  0  0  0  0  0  0  0  0  0
   -5.5081    0.4847   -1.7491 C   0  0  0  0  0  0  0  0  0  0  0  0
   -6.7151    0.7164   -2.3857 C   0  0  0  0  0  0  0  0  0  0  0  0
   -7.7629    1.3207   -1.6850 C   0  0  0  0  0  0  0  0  0  0  0  0
   -7.5637    1.6754   -0.3587 C   0  0  0  0  0  0  0  0  0  0  0  0
   -8.6502    2.3196    0.4225 C   0  0  0  0  0  0  0  0  0  0  0  0
   -6.3466    1.4301    0.2468 C   0  0  0  0  0  0  0  0  0  0  0  0
    1.0769   -1.8864    0.5460 C   0  0  0  0  0  0  0  0  0  0  0  0
    0.5787   -3.1615    0.8157 C   0  0  0  0  0  0  0  0  0  0  0  0
    1.3517   -4.0703    1.5352 C   0  0  0  0  0  0  0  0  0  0  0  0
    2.6101   -3.7370    1.9922 C   0  0  0  0  0  0  0  0  0  0  0  0
    3.1154   -2.4670    1.7278 C   0  0  0  0  0  0  0  0  0  0  0  0
    2.3396   -1.5801    1.0156 C   0  0  0  0  0  0  0  0  0  0  0  0
    7.2510   -0.7806   -0.1269 H   0  0  0  0  0  0  0  0  0  0  0  0
    7.1998   -0.6098   -1.8961 H   0  0  0  0  0  0  0  0  0  0  0  0
    8.7394   -0.1980   -1.0128 H   0  0  0  0  0  0  0  0  0  0  0  0
    6.7174    1.5909   -1.8045 H   0  0  0  0  0  0  0  0  0  0  0  0
    7.8731    1.9275   -0.5029 H   0  0  0  0  0  0  0  0  0  0  0  0
    5.6583    2.3408    0.2347 H   0  0  0  0  0  0  0  0  0  0  0  0
    6.3716    0.9974    1.1934 H   0  0  0  0  0  0  0  0  0  0  0  0
    5.1676   -0.6384   -0.4021 H   0  0  0  0  0  0  0  0  0  0  0  0
    4.4387    0.8029   -1.1624 H   0  0  0  0  0  0  0  0  0  0  0  0
    3.4644    1.5776    0.8855 H   0  0  0  0  0  0  0  0  0  0  0  0
    4.1750    0.2897    1.8690 H   0  0  0  0  0  0  0  0  0  0  0  0
    2.0723    2.0351   -0.5343 H   0  0  0  0  0  0  0  0  0  0  0  0
   -0.9910   -1.7495   -1.1118 H   0  0  0  0  0  0  0  0  0  0  0  0
   -0.6757   -0.0768   -1.6325 H   0  0  0  0  0  0  0  0  0  0  0  0
   -1.9097   -0.9196    1.0555 H   0  0  0  0  0  0  0  0  0  0  0  0
   -1.4379    1.6430   -0.1637 H   0  0  0  0  0  0  0  0  0  0  0  0
   -2.8219    0.6410   -1.4307 H   0  0  0  0  0  0  0  0  0  0  0  0
   -3.4323   -1.0072   -0.9065 H   0  0  0  0  0  0  0  0  0  0  0  0
   -4.6813    0.0143   -2.2820 H   0  0  0  0  0  0  0  0  0  0  0  0
   -6.8831    0.4404   -3.4324 H   0  0  0  0  0  0  0  0  0  0  0  0
   -8.7087    1.5015   -2.1861 H   0  0  0  0  0  0  0  0  0  0  0  0
   -9.4291    1.6246    0.7551 H   0  0  0  0  0  0  0  0  0  0  0  0
   -9.1669    3.1279   -0.1661 H   0  0  0  0  0  0  0  0  0  0  0  0
   -8.1955    2.8315    1.3077 H   0  0  0  0  0  0  0  0  0  0  0  0
   -6.1993    1.7065    1.2715 H   0  0  0  0  0  0  0  0  0  0  0  0
   -0.4218   -3.4623    0.4665 H   0  0  0  0  0  0  0  0  0  0  0  0
    1.0019   -5.0717    1.7664 H   0  0  0  0  0  0  0  0  0  0  0  0
    3.2012   -4.4460    2.5480 H   0  0  0  0  0  0  0  0  0  0  0  0
    4.0950   -2.1487    2.0603 H   0  0  0  0  0  0  0  0  0  0  0  0
  1  2  1  0
  2  3  1  0
  3  4  1  0
  4  5  1  0
  5  6  1  0
  6  7  1  0
  7  8  2  3
  7  9  1  0
  9 10  1  0
 10 11  1  0
 11 12  1  0
 11 13  1  0
 13 14  1  0
 14 15  1  0
 15 16  2  0
 16 17  1  0
 17 18  2  0
 18 19  1  0
 19 20  1  0
 19 21  2  0
  9 22  1  0
 22 23  2  0
 23 24  1  0
 24 25  2  0
 25 26  1  0
 26 27  2  0
 27  6  1  0
 21 15  1  0
 27 22  1  0
  1 28  1  0
  1 29  1  0
  1 30  1  0
  2 31  1  0
  2 32  1  0
  3 33  1  0
  3 34  1  0
  4 35  1  0
  4 36  1  0
  5 37  1  0
  5 38  1  0
  8 39  1  0
 10 40  1  0
 10 41  1  0
 11 42  1  0
 12 43  1  0
 13 44  1  0
 13 45  1  0
 16 46  1  0
 17 47  1  0
 18 48  1  0
 20 49  1  0
 20 50  1  0
 20 51  1  0
 21 52  1  0
 23 53  1  0
 24 54  1  0
 25 55  1  0
 26 56  1  0
M  END
>  <Batch_No>  (260) 
STL042298

>  <EC50_nM>  (260) 
ND

>  <Set>  (260) 
Probe-like

>  <Molecular_Weight>  (260) 
367.48456

>  <ALogP>  (260) 
4.551

$$$$
MMV666109
     RDKit          3D

 57 59  0  0  0  0  0  0  0  0999 V2000
   -6.0691   -2.8631    0.2572 C   0  0  0  0  0  0  0  0  0  0  0  0
   -4.5452   -3.0371    0.4357 C   0  0  0  0  0  0  0  0  0  0  0  0
   -3.7465   -2.2682   -0.2569 O   0  0  0  0  0  0  0  0  0  0  0  0
   -2.9594   -1.5101   -0.9420 C   0  0  0  0  0  0  0  0  0  0  0  0
   -3.1599   -1.4352   -2.2289 O   0  0  0  0  0  0  0  0  0  0  0  0
   -1.8474   -0.7316   -0.3038 C   0  0  0  0  0  0  0  0  0  0  0  0
   -2.1742    0.2727    0.6757 C   0  0  0  0  0  0  0  0  0  0  0  0
   -2.8656    1.5322    0.3147 C   0  0  0  0  0  0  0  0  0  0  0  0
   -2.7661    2.5428    1.2367 C   0  0  0  0  0  0  0  0  0  0  0  0
   -3.1144    3.8505    0.9036 C   0  0  0  0  0  0  0  0  0  0  0  0
   -3.5902    4.0968   -0.3779 C   0  0  0  0  0  0  0  0  0  0  0  0
   -3.7029    3.0388   -1.2636 C   0  0  0  0  0  0  0  0  0  0  0  0
   -3.3550    1.7540   -0.9809 C   0  0  0  0  0  0  0  0  0  0  0  0
   -0.9910   -1.8065    0.3350 C   0  0  0  0  0  0  0  0  0  0  0  0
    0.2221   -1.2116    0.9536 C   0  0  0  0  0  0  0  0  0  0  0  0
    0.9853   -0.3213    0.1488 N   0  0  0  0  0  0  0  0  0  0  0  0
    2.2672   -0.8473   -0.2331 C   0  0  0  0  0  0  0  0  0  0  0  0
    3.3715   -0.0868    0.4570 C   0  0  0  0  0  0  0  0  0  0  0  0
    3.2399    0.6475    1.5731 C   0  0  0  0  0  0  0  0  0  0  0  0
    4.3275    1.2863    2.1227 C   0  0  0  0  0  0  0  0  0  0  0  0
    5.6198    1.1883    1.5644 C   0  0  0  0  0  0  0  0  0  0  0  0
    5.7559    0.4389    0.4159 C   0  0  0  0  0  0  0  0  0  0  0  0
    6.7478    0.1579   -0.3644 O   0  0  0  0  0  0  0  0  0  0  0  0
    7.9241    0.0926   -0.9566 C   0  0  0  0  0  0  0  0  0  0  0  0
    4.5750   -0.1842   -0.1168 C   0  0  0  0  0  0  0  0  0  0  0  0
    4.6671   -0.8836   -1.3149 O   0  0  0  0  0  0  0  0  0  0  0  0
    0.3262    0.3715   -0.8761 C   0  0  0  0  0  0  0  0  0  0  0  0
   -0.9258   -0.2169   -1.4259 C   0  0  0  0  0  0  0  0  0  0  0  0
   -6.5675   -3.7530    0.6270 H   0  0  0  0  0  0  0  0  0  0  0  0
   -6.2157   -2.8509   -0.8487 H   0  0  0  0  0  0  0  0  0  0  0  0
   -6.4183   -1.9745    0.8100 H   0  0  0  0  0  0  0  0  0  0  0  0
   -4.3739   -4.1239    0.4838 H   0  0  0  0  0  0  0  0  0  0  0  0
   -4.4494   -2.6949    1.5565 H   0  0  0  0  0  0  0  0  0  0  0  0
   -2.6729   -0.2134    1.5481 H   0  0  0  0  0  0  0  0  0  0  0  0
   -1.1795    0.5890    1.1225 H   0  0  0  0  0  0  0  0  0  0  0  0
   -2.4111    2.2984    2.2444 H   0  0  0  0  0  0  0  0  0  0  0  0
   -3.0315    4.5891    1.6648 H   0  0  0  0  0  0  0  0  0  0  0  0
   -3.8565    5.1229   -0.7107 H   0  0  0  0  0  0  0  0  0  0  0  0
   -4.0919    3.2549   -2.2540 H   0  0  0  0  0  0  0  0  0  0  0  0
   -3.5260    1.0134   -1.7037 H   0  0  0  0  0  0  0  0  0  0  0  0
   -0.6864   -2.4885   -0.4911 H   0  0  0  0  0  0  0  0  0  0  0  0
   -1.5822   -2.3238    1.1024 H   0  0  0  0  0  0  0  0  0  0  0  0
    0.8905   -2.0914    1.2002 H   0  0  0  0  0  0  0  0  0  0  0  0
    0.0166   -0.8065    1.9729 H   0  0  0  0  0  0  0  0  0  0  0  0
    2.3085   -1.9160    0.1231 H   0  0  0  0  0  0  0  0  0  0  0  0
    2.4001   -0.7881   -1.3254 H   0  0  0  0  0  0  0  0  0  0  0  0
    2.2589    0.6909    2.0554 H   0  0  0  0  0  0  0  0  0  0  0  0
    4.1428    1.9088    2.9852 H   0  0  0  0  0  0  0  0  0  0  0  0
    6.4594    1.6747    1.9457 H   0  0  0  0  0  0  0  0  0  0  0  0
    8.7724    0.6561   -0.6126 H   0  0  0  0  0  0  0  0  0  0  0  0
    8.2776   -1.0208   -0.9967 H   0  0  0  0  0  0  0  0  0  0  0  0
    7.7017    0.3618   -2.1083 H   0  0  0  0  0  0  0  0  0  0  0  0
    4.5066   -0.2409   -2.1339 H   0  0  0  0  0  0  0  0  0  0  0  0
    0.1371    1.4455   -0.6330 H   0  0  0  0  0  0  0  0  0  0  0  0
    1.0440    0.4535   -1.7668 H   0  0  0  0  0  0  0  0  0  0  0  0
   -1.3703    0.4822   -2.1171 H   0  0  0  0  0  0  0  0  0  0  0  0
   -0.7001   -1.1219   -2.0719 H   0  0  0  0  0  0  0  0  0  0  0  0
  1  2  1  0
  2  3  1  0
  3  4  1  0
  4  5  2  0
  4  6  1  0
  6  7  1  0
  7  8  1  0
  8  9  2  0
  9 10  1  0
 10 11  2  0
 11 12  1  0
 12 13  2  0
  6 14  1  0
 14 15  1  0
 15 16  1  0
 16 17  1  0
 17 18  1  0
 18 19  2  0
 19 20  1  0
 20 21  2  0
 21 22  1  0
 22 23  1  0
 23 24  1  0
 22 25  2  0
 25 26  1  0
 16 27  1  0
 27 28  1  0
 28  6  1  0
 13  8  1  0
 25 18  1  0
  1 29  1  0
  1 30  1  0
  1 31  1  0
  2 32  1  0
  2 33  1  0
  7 34  1  0
  7 35  1  0
  9 36  1  0
 10 37  1  0
 11 38  1  0
 12 39  1  0
 13 40  1  0
 14 41  1  0
 14 42  1  0
 15 43  1  0
 15 44  1  0
 17 45  1  0
 17 46  1  0
 19 47  1  0
 20 48  1  0
 21 49  1  0
 24 50  1  0
 24 51  1  0
 24 52  1  0
 26 53  1  0
 27 54  1  0
 27 55  1  0
 28 56  1  0
 28 57  1  0
M  END
>  <Batch_No>  (261) 
52537683-1

>  <EC50_nM>  (261) 
ND

>  <Set>  (261) 
Probe-like

>  <Molecular_Weight>  (261) 
383.48065

>  <ALogP>  (261) 
4.226

$$$$
MMV665936
     RDKit          3D

 57 60  0  0  0  0  0  0  0  0999 V2000
    3.1526   -4.3503   -2.3845 C   0  0  0  0  0  0  0  0  0  0  0  0
    2.8710   -3.4205   -1.2635 C   0  0  0  0  0  0  0  0  0  0  0  0
    1.5616   -3.1821   -0.8683 C   0  0  0  0  0  0  0  0  0  0  0  0
    1.2724   -2.3130    0.1817 C   0  0  0  0  0  0  0  0  0  0  0  0
    2.2484   -1.6598    0.8668 C   0  0  0  0  0  0  0  0  0  0  0  0
    3.5672   -1.9015    0.4668 C   0  0  0  0  0  0  0  0  0  0  0  0
    3.8635   -2.7619   -0.5735 C   0  0  0  0  0  0  0  0  0  0  0  0
    1.9752   -0.5643    2.1818 S   0  0  0  0  0  0  0  0  0  0  0  0
    3.1116   -0.6010    3.1656 O   0  0  0  0  0  0  0  0  0  0  0  0
    0.7399   -1.0404    2.9144 O   0  0  0  0  0  0  0  0  0  0  0  0
    1.7748    1.0960    1.6783 C   0  0  0  0  0  0  0  0  0  0  0  0
    0.5862    1.7512    1.3371 C   0  0  0  0  0  0  0  0  0  0  0  0
   -0.7682    1.1395    1.3388 C   0  0  0  0  0  0  0  0  0  0  0  0
   -0.9809    0.2966    0.2128 O   0  0  0  0  0  0  0  0  0  0  0  0
   -2.1907   -0.3567    0.0516 C   0  0  0  0  0  0  0  0  0  0  0  0
   -3.0591   -0.1459    0.9615 O   0  0  0  0  0  0  0  0  0  0  0  0
   -2.4711   -1.2322   -1.0787 C   0  0  0  0  0  0  0  0  0  0  0  0
   -1.5647   -1.4901   -2.0840 C   0  0  0  0  0  0  0  0  0  0  0  0
   -1.9212   -2.3313   -3.1131 C   0  0  0  0  0  0  0  0  0  0  0  0
   -3.1701   -2.9250   -3.1623 C   0  0  0  0  0  0  0  0  0  0  0  0
   -4.0931   -2.6788   -2.1634 C   0  0  0  0  0  0  0  0  0  0  0  0
   -5.4591   -3.3032   -2.1799 C   0  0  0  0  0  0  0  0  0  0  0  0
   -3.7017   -1.8326   -1.1504 C   0  0  0  0  0  0  0  0  0  0  0  0
    0.8686    3.0579    0.9978 C   0  0  0  0  0  0  0  0  0  0  0  0
    2.1997    3.1827    1.1333 N   0  0  0  0  0  0  0  0  0  0  0  0
    2.7292    2.0329    1.5319 N   0  0  0  0  0  0  0  0  0  0  0  0
    4.1587    1.8288    1.7750 C   0  0  0  0  0  0  0  0  0  0  0  0
   -0.0286    4.1263    0.5750 C   0  0  0  0  0  0  0  0  0  0  0  0
    0.0879    5.4108    1.1170 C   0  0  0  0  0  0  0  0  0  0  0  0
   -0.7597    6.4116    0.7127 C   0  0  0  0  0  0  0  0  0  0  0  0
   -1.7453    6.2172   -0.2220 C   0  0  0  0  0  0  0  0  0  0  0  0
   -1.8749    4.9563   -0.7675 C   0  0  0  0  0  0  0  0  0  0  0  0
   -1.0206    3.9341   -0.3647 C   0  0  0  0  0  0  0  0  0  0  0  0
    2.7437   -3.9332   -3.3281 H   0  0  0  0  0  0  0  0  0  0  0  0
    2.7305   -5.3408   -2.1349 H   0  0  0  0  0  0  0  0  0  0  0  0
    4.2604   -4.5014   -2.4303 H   0  0  0  0  0  0  0  0  0  0  0  0
    0.7933   -3.7009   -1.4129 H   0  0  0  0  0  0  0  0  0  0  0  0
    0.2444   -2.1518    0.4615 H   0  0  0  0  0  0  0  0  0  0  0  0
    4.4063   -1.4294    0.9508 H   0  0  0  0  0  0  0  0  0  0  0  0
    4.9064   -2.9261   -0.8582 H   0  0  0  0  0  0  0  0  0  0  0  0
   -1.5384    1.9316    1.3001 H   0  0  0  0  0  0  0  0  0  0  0  0
   -0.9644    0.5952    2.2908 H   0  0  0  0  0  0  0  0  0  0  0  0
   -0.5804   -1.0135   -2.0319 H   0  0  0  0  0  0  0  0  0  0  0  0
   -1.2383   -2.5454   -3.9006 H   0  0  0  0  0  0  0  0  0  0  0  0
   -3.4684   -3.5866   -3.9598 H   0  0  0  0  0  0  0  0  0  0  0  0
   -5.4451   -4.3713   -1.9189 H   0  0  0  0  0  0  0  0  0  0  0  0
   -5.9179   -3.1207   -3.1655 H   0  0  0  0  0  0  0  0  0  0  0  0
   -6.0633   -2.7580   -1.4267 H   0  0  0  0  0  0  0  0  0  0  0  0
   -4.4222   -1.6407   -0.3711 H   0  0  0  0  0  0  0  0  0  0  0  0
    4.5569    0.9447    1.2492 H   0  0  0  0  0  0  0  0  0  0  0  0
    4.7360    2.6908    1.3832 H   0  0  0  0  0  0  0  0  0  0  0  0
    4.3046    1.8103    2.8745 H   0  0  0  0  0  0  0  0  0  0  0  0
    0.8761    5.5568    1.8611 H   0  0  0  0  0  0  0  0  0  0  0  0
   -0.6564    7.4011    1.1421 H   0  0  0  0  0  0  0  0  0  0  0  0
   -2.4177    6.9833   -0.5522 H   0  0  0  0  0  0  0  0  0  0  0  0
   -2.6393    4.7764   -1.5026 H   0  0  0  0  0  0  0  0  0  0  0  0
   -1.1668    2.9782   -0.8219 H   0  0  0  0  0  0  0  0  0  0  0  0
  1  2  1  0
  2  3  2  0
  3  4  1  0
  4  5  2  0
  5  6  1  0
  6  7  2  0
  5  8  1  0
  8  9  2  0
  8 10  2  0
  8 11  1  0
 11 12  2  0
 12 13  1  0
 13 14  1  0
 14 15  1  0
 15 16  2  0
 15 17  1  0
 17 18  2  0
 18 19  1  0
 19 20  2  0
 20 21  1  0
 21 22  1  0
 21 23  2  0
 12 24  1  0
 24 25  2  0
 25 26  1  0
 26 27  1  0
 24 28  1  0
 28 29  2  0
 29 30  1  0
 30 31  2  0
 31 32  1  0
 32 33  2  0
  7  2  1  0
 26 11  1  0
 23 17  1  0
 33 28  1  0
  1 34  1  0
  1 35  1  0
  1 36  1  0
  3 37  1  0
  4 38  1  0
  6 39  1  0
  7 40  1  0
 13 41  1  0
 13 42  1  0
 18 43  1  0
 19 44  1  0
 20 45  1  0
 22 46  1  0
 22 47  1  0
 22 48  1  0
 23 49  1  0
 27 50  1  0
 27 51  1  0
 27 52  1  0
 29 53  1  0
 30 54  1  0
 31 55  1  0
 32 56  1  0
 33 57  1  0
M  END
>  <Batch_No>  (262) 
4K-357S

>  <EC50_nM>  (262) 
ND

>  <Set>  (262) 
Probe-like

>  <Molecular_Weight>  (262) 
460.54476

>  <ALogP>  (262) 
6.065

$$$$
MMV666020
     RDKit          3D

 46 46  0  0  0  0  0  0  0  0999 V2000
   -6.9463    1.4226   -0.9110 C   0  0  0  0  0  0  0  0  0  0  0  0
   -5.7111    0.7915   -0.3921 C   0  0  0  0  0  0  0  0  0  0  0  0
   -4.4950    1.3419   -0.7203 C   0  0  0  0  0  0  0  0  0  0  0  0
   -3.2906    0.8169   -0.2786 C   0  0  0  0  0  0  0  0  0  0  0  0
   -3.2758   -0.3090    0.5283 C   0  0  0  0  0  0  0  0  0  0  0  0
   -2.1823   -0.9207    1.0282 O   0  0  0  0  0  0  0  0  0  0  0  0
   -0.8282   -0.6659    0.9032 C   0  0  0  0  0  0  0  0  0  0  0  0
   -0.2873   -0.7750   -0.4819 C   0  0  0  0  0  0  0  0  0  0  0  0
    1.2010   -0.4156   -0.4712 C   0  0  0  0  0  0  0  0  0  0  0  0
    1.9425   -1.3546    0.4085 C   0  0  0  0  0  0  0  0  0  0  0  0
    3.4330   -1.0118    0.3576 C   0  0  0  0  0  0  0  0  0  0  0  0
    3.6178    0.3844    0.8448 C   0  0  0  0  0  0  0  0  0  0  0  0
    5.0346    0.7054    0.8436 N   0  0  0  0  0  0  0  0  0  0  0  0
    5.5402    0.7877   -0.5072 C   0  0  0  0  0  0  0  0  0  0  0  0
    7.0256    1.1673   -0.3545 C   0  0  0  0  0  0  0  0  0  0  0  0
    6.9881    2.4074    0.3237 O   0  0  0  0  0  0  0  0  0  0  0  0
   -4.5240   -0.8393    0.8401 C   0  0  0  0  0  0  0  0  0  0  0  0
   -4.5940   -2.0588    1.7104 C   0  0  0  0  0  0  0  0  0  0  0  0
   -5.7062   -0.3222    0.4058 C   0  0  0  0  0  0  0  0  0  0  0  0
   -7.7421    1.4552   -0.1515 H   0  0  0  0  0  0  0  0  0  0  0  0
   -6.7310    2.4600   -1.2450 H   0  0  0  0  0  0  0  0  0  0  0  0
   -7.3644    0.8883   -1.8058 H   0  0  0  0  0  0  0  0  0  0  0  0
   -4.4769    2.2227   -1.3514 H   0  0  0  0  0  0  0  0  0  0  0  0
   -2.3972    1.3035   -0.5642 H   0  0  0  0  0  0  0  0  0  0  0  0
   -0.2791   -1.4047    1.5505 H   0  0  0  0  0  0  0  0  0  0  0  0
   -0.5227    0.3324    1.3105 H   0  0  0  0  0  0  0  0  0  0  0  0
   -0.8125   -0.2232   -1.2569 H   0  0  0  0  0  0  0  0  0  0  0  0
   -0.3171   -1.8828   -0.7295 H   0  0  0  0  0  0  0  0  0  0  0  0
    1.5565   -0.3890   -1.5078 H   0  0  0  0  0  0  0  0  0  0  0  0
    1.2946    0.6490   -0.1097 H   0  0  0  0  0  0  0  0  0  0  0  0
    1.8181   -2.4090    0.1454 H   0  0  0  0  0  0  0  0  0  0  0  0
    1.6407   -1.2580    1.4891 H   0  0  0  0  0  0  0  0  0  0  0  0
    3.7300   -1.0551   -0.7153 H   0  0  0  0  0  0  0  0  0  0  0  0
    4.0007   -1.7587    0.9270 H   0  0  0  0  0  0  0  0  0  0  0  0
    3.2571    0.5431    1.8799 H   0  0  0  0  0  0  0  0  0  0  0  0
    3.1507    1.1470    0.1806 H   0  0  0  0  0  0  0  0  0  0  0  0
    5.6032   -0.0090    1.3396 H   0  0  0  0  0  0  0  0  0  0  0  0
    5.4911   -0.1829   -1.0597 H   0  0  0  0  0  0  0  0  0  0  0  0
    4.9940    1.5310   -1.1032 H   0  0  0  0  0  0  0  0  0  0  0  0
    7.4290    0.4076    0.3649 H   0  0  0  0  0  0  0  0  0  0  0  0
    7.5467    1.2125   -1.3116 H   0  0  0  0  0  0  0  0  0  0  0  0
    6.6506    3.0729   -0.3430 H   0  0  0  0  0  0  0  0  0  0  0  0
   -4.6416   -1.6795    2.7555 H   0  0  0  0  0  0  0  0  0  0  0  0
   -3.6947   -2.6888    1.5520 H   0  0  0  0  0  0  0  0  0  0  0  0
   -5.4703   -2.6525    1.4178 H   0  0  0  0  0  0  0  0  0  0  0  0
   -6.6553   -0.7848    0.6873 H   0  0  0  0  0  0  0  0  0  0  0  0
  1  2  1  0
  2  3  2  0
  3  4  1  0
  4  5  2  0
  5  6  1  0
  6  7  1  0
  7  8  1  0
  8  9  1  0
  9 10  1  0
 10 11  1  0
 11 12  1  0
 12 13  1  0
 13 14  1  0
 14 15  1  0
 15 16  1  0
  5 17  1  0
 17 18  1  0
 17 19  2  0
 19  2  1  0
  1 20  1  0
  1 21  1  0
  1 22  1  0
  3 23  1  0
  4 24  1  0
  7 25  1  0
  7 26  1  0
  8 27  1  0
  8 28  1  0
  9 29  1  0
  9 30  1  0
 10 31  1  0
 10 32  1  0
 11 33  1  0
 11 34  1  0
 12 35  1  0
 12 36  1  0
 13 37  1  0
 14 38  1  0
 14 39  1  0
 15 40  1  0
 15 41  1  0
 16 42  1  0
 18 43  1  0
 18 44  1  0
 18 45  1  0
 19 46  1  0
M  END
>  <Batch_No>  (263) 
5531252

>  <EC50_nM>  (263) 
ND

>  <Set>  (263) 
Probe-like

>  <Molecular_Weight>  (263) 
265.39108

>  <ALogP>  (263) 
3.404

$$$$
MMV665971
     RDKit          3D

 54 57  0  0  0  0  0  0  0  0999 V2000
   -4.1995   -3.0326    3.0509 C   0  0  0  0  0  0  0  0  0  0  0  0
   -4.7024   -2.2854    1.8554 C   0  0  0  0  0  0  0  0  0  0  0  0
   -3.7811   -2.2467    0.7994 O   0  0  0  0  0  0  0  0  0  0  0  0
   -2.5384   -1.7004    0.8853 C   0  0  0  0  0  0  0  0  0  0  0  0
   -2.2047   -1.1938    2.0083 O   0  0  0  0  0  0  0  0  0  0  0  0
   -1.5935   -1.6820   -0.2627 C   0  0  0  0  0  0  0  0  0  0  0  0
   -2.0436   -2.2304   -1.3664 C   0  0  0  0  0  0  0  0  0  0  0  0
   -3.3449   -2.8433   -1.5842 C   0  0  0  0  0  0  0  0  0  0  0  0
   -1.1097   -2.2066   -2.4722 N   0  0  0  0  0  0  0  0  0  0  0  0
    0.0540   -1.6743   -2.3177 C   0  0  0  0  0  0  0  0  0  0  0  0
    1.3732   -1.5345   -3.5540 S   0  0  0  0  0  0  0  0  0  0  0  0
    2.4623   -0.7157   -2.4302 C   0  0  0  0  0  0  0  0  0  0  0  0
    3.6862   -0.2958   -2.6925 C   0  0  0  0  0  0  0  0  0  0  0  0
    4.4892    0.3720   -1.6685 C   0  0  0  0  0  0  0  0  0  0  0  0
    4.4513    1.7445   -1.4797 C   0  0  0  0  0  0  0  0  0  0  0  0
    5.2427    2.3243   -0.4837 C   0  0  0  0  0  0  0  0  0  0  0  0
    5.2324    4.0523   -0.2035 Cl  0  0  0  0  0  0  0  0  0  0  0  0
    6.0530    1.4924    0.2954 C   0  0  0  0  0  0  0  0  0  0  0  0
    6.0862    0.1258    0.1023 C   0  0  0  0  0  0  0  0  0  0  0  0
    5.2954   -0.4509   -0.8926 C   0  0  0  0  0  0  0  0  0  0  0  0
    5.3230   -1.8192   -1.0923 O   0  0  0  0  0  0  0  0  0  0  0  0
    1.7628   -0.6261   -1.2760 C   0  0  0  0  0  0  0  0  0  0  0  0
    2.3325   -0.0531   -0.2465 O   0  0  0  0  0  0  0  0  0  0  0  0
    0.5413   -1.1119   -1.2182 N   0  0  0  0  0  0  0  0  0  0  0  0
   -0.3092   -1.0606   -0.0029 C   0  0  0  0  0  0  0  0  0  0  0  0
   -0.5751    0.3966    0.2961 C   0  0  0  0  0  0  0  0  0  0  0  0
    0.0908    1.0608    1.3033 C   0  0  0  0  0  0  0  0  0  0  0  0
   -0.2216    2.3951    1.4899 C   0  0  0  0  0  0  0  0  0  0  0  0
   -1.1706    3.0288    0.6877 C   0  0  0  0  0  0  0  0  0  0  0  0
   -1.4840    4.3832    0.8812 O   0  0  0  0  0  0  0  0  0  0  0  0
   -2.4411    5.0273    0.0743 C   0  0  0  0  0  0  0  0  0  0  0  0
   -1.8259    2.3374   -0.3181 C   0  0  0  0  0  0  0  0  0  0  0  0
   -1.5176    1.0035   -0.5095 C   0  0  0  0  0  0  0  0  0  0  0  0
   -4.3594   -2.4487    3.9895 H   0  0  0  0  0  0  0  0  0  0  0  0
   -3.1129   -3.2785    2.9667 H   0  0  0  0  0  0  0  0  0  0  0  0
   -4.8064   -3.9586    3.1843 H   0  0  0  0  0  0  0  0  0  0  0  0
   -5.6181   -2.7928    1.4337 H   0  0  0  0  0  0  0  0  0  0  0  0
   -5.0592   -1.2764    2.1566 H   0  0  0  0  0  0  0  0  0  0  0  0
   -3.4380   -3.1222   -2.6791 H   0  0  0  0  0  0  0  0  0  0  0  0
   -4.1519   -2.0762   -1.4632 H   0  0  0  0  0  0  0  0  0  0  0  0
   -3.5858   -3.7215   -0.9551 H   0  0  0  0  0  0  0  0  0  0  0  0
    4.0566   -0.4713   -3.6937 H   0  0  0  0  0  0  0  0  0  0  0  0
    3.8109    2.3611   -2.1024 H   0  0  0  0  0  0  0  0  0  0  0  0
    6.6864    1.8931    1.0819 H   0  0  0  0  0  0  0  0  0  0  0  0
    6.7013   -0.5462    0.6869 H   0  0  0  0  0  0  0  0  0  0  0  0
    4.7669   -2.4396   -0.4965 H   0  0  0  0  0  0  0  0  0  0  0  0
    0.2464   -1.5207    0.8488 H   0  0  0  0  0  0  0  0  0  0  0  0
    0.8092    0.5803    1.9173 H   0  0  0  0  0  0  0  0  0  0  0  0
    0.2495    3.0085    2.2596 H   0  0  0  0  0  0  0  0  0  0  0  0
   -3.4032    4.4838    0.1992 H   0  0  0  0  0  0  0  0  0  0  0  0
   -2.5270    6.0765    0.4161 H   0  0  0  0  0  0  0  0  0  0  0  0
   -2.0774    4.9929   -0.9816 H   0  0  0  0  0  0  0  0  0  0  0  0
   -2.5653    2.8053   -0.9534 H   0  0  0  0  0  0  0  0  0  0  0  0
   -2.0365    0.4705   -1.3002 H   0  0  0  0  0  0  0  0  0  0  0  0
  1  2  1  0
  2  3  1  0
  3  4  1  0
  4  5  2  0
  4  6  1  0
  6  7  2  0
  7  8  1  0
  7  9  1  0
  9 10  2  0
 10 11  1  0
 11 12  1  0
 12 13  2  3
 13 14  1  0
 14 15  2  0
 15 16  1  0
 16 17  1  0
 16 18  2  0
 18 19  1  0
 19 20  2  0
 20 21  1  0
 12 22  1  0
 22 23  2  0
 22 24  1  0
 24 25  1  0
 25 26  1  0
 26 27  2  0
 27 28  1  0
 28 29  2  0
 29 30  1  0
 30 31  1  0
 29 32  1  0
 32 33  2  0
 25  6  1  0
 24 10  1  0
 20 14  1  0
 33 26  1  0
  1 34  1  0
  1 35  1  0
  1 36  1  0
  2 37  1  0
  2 38  1  0
  8 39  1  0
  8 40  1  0
  8 41  1  0
 13 42  1  0
 15 43  1  0
 18 44  1  0
 19 45  1  0
 21 46  1  0
 25 47  1  0
 27 48  1  0
 28 49  1  0
 31 50  1  0
 31 51  1  0
 31 52  1  0
 32 53  1  0
 33 54  1  0
M  END
>  <Batch_No>  (264) 
5832039

>  <EC50_nM>  (264) 
489

>  <Set>  (264) 
Probe-like

>  <Molecular_Weight>  (264) 
484.95193

>  <ALogP>  (264) 
4.858

$$$$
MMV001241
     RDKit          3D

 48 51  0  0  0  0  0  0  0  0999 V2000
   -4.7222   -3.5289   -1.3581 C   0  0  0  0  0  0  0  0  0  0  0  0
   -3.5415   -2.7902   -1.1145 O   0  0  0  0  0  0  0  0  0  0  0  0
   -3.7049   -1.5659   -0.4305 C   0  0  0  0  0  0  0  0  0  0  0  0
   -4.9587   -1.1515   -0.0475 C   0  0  0  0  0  0  0  0  0  0  0  0
   -5.2246    0.0262    0.6209 C   0  0  0  0  0  0  0  0  0  0  0  0
   -4.1247    0.8179    0.9080 C   0  0  0  0  0  0  0  0  0  0  0  0
   -4.3477    2.1091    1.6251 C   0  0  0  0  0  0  0  0  0  0  0  0
   -2.8618    0.4047    0.5247 C   0  0  0  0  0  0  0  0  0  0  0  0
   -1.2620    1.1570    0.7447 S   0  0  0  0  0  0  0  0  0  0  0  0
   -0.3991   -0.2823   -0.1364 C   0  0  0  0  0  0  0  0  0  0  0  0
   -1.3179   -0.9491   -0.3901 N   0  0  0  0  0  0  0  0  0  0  0  0
   -2.5916   -0.7627   -0.1386 C   0  0  0  0  0  0  0  0  0  0  0  0
    1.0468   -0.2344   -0.2608 N   0  0  0  0  0  0  0  0  0  0  0  0
    1.5636    0.5140   -1.3543 C   0  0  0  0  0  0  0  0  0  0  0  0
    1.4419    1.9780   -1.2179 C   0  0  0  0  0  0  0  0  0  0  0  0
    0.2443    2.5235   -1.7347 C   0  0  0  0  0  0  0  0  0  0  0  0
    0.0185    3.9021   -1.6517 C   0  0  0  0  0  0  0  0  0  0  0  0
    0.9717    4.7336   -1.0617 C   0  0  0  0  0  0  0  0  0  0  0  0
    2.0918    4.1778   -0.5864 N   0  0  0  0  0  0  0  0  0  0  0  0
    2.3198    2.8372   -0.6628 C   0  0  0  0  0  0  0  0  0  0  0  0
    1.7611   -0.8898    0.7646 C   0  0  0  0  0  0  0  0  0  0  0  0
    1.0749   -1.2885    1.7565 O   0  0  0  0  0  0  0  0  0  0  0  0
    3.1745   -1.1616    0.7904 C   0  0  0  0  0  0  0  0  0  0  0  0
    3.5234   -2.5156    0.5830 C   0  0  0  0  0  0  0  0  0  0  0  0
    4.8238   -2.9315    0.5530 C   0  0  0  0  0  0  0  0  0  0  0  0
    5.8674   -2.0062    0.7301 C   0  0  0  0  0  0  0  0  0  0  0  0
    5.5391   -0.6639    0.9375 C   0  0  0  0  0  0  0  0  0  0  0  0
    4.1930   -0.2688    0.9642 C   0  0  0  0  0  0  0  0  0  0  0  0
    7.2034   -2.4752    0.6901 C   0  0  0  0  0  0  0  0  0  0  0  0
    8.2896   -2.8664    0.6707 N   0  0  0  0  0  0  0  0  0  0  0  0
   -5.4799   -2.9938   -1.9435 H   0  0  0  0  0  0  0  0  0  0  0  0
   -5.2111   -3.7091   -0.3496 H   0  0  0  0  0  0  0  0  0  0  0  0
   -4.5194   -4.5594   -1.7125 H   0  0  0  0  0  0  0  0  0  0  0  0
   -5.8417   -1.7763   -0.2698 H   0  0  0  0  0  0  0  0  0  0  0  0
   -6.2318    0.2891    0.8853 H   0  0  0  0  0  0  0  0  0  0  0  0
   -3.8212    2.9606    1.1602 H   0  0  0  0  0  0  0  0  0  0  0  0
   -5.4461    2.3620    1.5935 H   0  0  0  0  0  0  0  0  0  0  0  0
   -3.9763    1.9837    2.6679 H   0  0  0  0  0  0  0  0  0  0  0  0
    1.1208    0.2081   -2.3102 H   0  0  0  0  0  0  0  0  0  0  0  0
    2.6677    0.3199   -1.4781 H   0  0  0  0  0  0  0  0  0  0  0  0
   -0.5113    1.9156   -2.1927 H   0  0  0  0  0  0  0  0  0  0  0  0
   -0.9091    4.2738   -2.0563 H   0  0  0  0  0  0  0  0  0  0  0  0
    0.7928    5.8169   -0.9942 H   0  0  0  0  0  0  0  0  0  0  0  0
    3.2355    2.4831   -0.2686 H   0  0  0  0  0  0  0  0  0  0  0  0
    2.7339   -3.2720    0.4454 H   0  0  0  0  0  0  0  0  0  0  0  0
    5.0252   -3.9808    0.3936 H   0  0  0  0  0  0  0  0  0  0  0  0
    6.3364    0.0757    1.0742 H   0  0  0  0  0  0  0  0  0  0  0  0
    3.9436    0.7546    1.1424 H   0  0  0  0  0  0  0  0  0  0  0  0
  1  2  1  0
  2  3  1  0
  3  4  2  0
  4  5  1  0
  5  6  2  0
  6  7  1  0
  6  8  1  0
  8  9  1  0
  9 10  1  0
 10 11  2  0
 11 12  1  0
 10 13  1  0
 13 14  1  0
 14 15  1  0
 15 16  2  0
 16 17  1  0
 17 18  2  0
 18 19  1  0
 19 20  2  0
 13 21  1  0
 21 22  2  0
 21 23  1  0
 23 24  2  0
 24 25  1  0
 25 26  2  0
 26 27  1  0
 27 28  2  0
 26 29  1  0
 29 30  3  0
 12  3  1  0
 12  8  2  0
 20 15  1  0
 28 23  1  0
  1 31  1  0
  1 32  1  0
  1 33  1  0
  4 34  1  0
  5 35  1  0
  7 36  1  0
  7 37  1  0
  7 38  1  0
 14 39  1  0
 14 40  1  0
 16 41  1  0
 17 42  1  0
 18 43  1  0
 20 44  1  0
 24 45  1  0
 25 46  1  0
 27 47  1  0
 28 48  1  0
M  END
>  <Batch_No>  (265) 
G856-7068

>  <EC50_nM>  (265) 
nan

>  <Set>  (265) 
Probe-like

>  <Molecular_Weight>  (265) 
414.4796

>  <ALogP>  (265) 
4.227

$$$$
MMV000720
     RDKit          3D

 59 63  0  0  0  0  0  0  0  0999 V2000
   -5.3247    4.4006   -1.2798 C   0  0  0  0  0  0  0  0  0  0  0  0
   -4.4878    3.2384   -1.6113 C   0  0  0  0  0  0  0  0  0  0  0  0
   -4.9458    2.3805   -2.6006 C   0  0  0  0  0  0  0  0  0  0  0  0
   -4.1499    1.2887   -2.9046 C   0  0  0  0  0  0  0  0  0  0  0  0
   -2.9910    1.0743   -2.2698 N   0  0  0  0  0  0  0  0  0  0  0  0
   -2.5172    1.8629   -1.3240 C   0  0  0  0  0  0  0  0  0  0  0  0
   -1.3013    1.6892   -0.6135 N   0  0  0  0  0  0  0  0  0  0  0  0
   -1.2725    0.9680    0.6135 C   0  0  0  0  0  0  0  0  0  0  0  0
    0.0166    0.9309    1.3124 C   0  0  0  0  0  0  0  0  0  0  0  0
    0.1820    1.1567    2.6558 C   0  0  0  0  0  0  0  0  0  0  0  0
    1.4535    1.0952    3.2381 C   0  0  0  0  0  0  0  0  0  0  0  0
    2.5580    0.8042    2.4553 C   0  0  0  0  0  0  0  0  0  0  0  0
    2.4097    0.5749    1.1047 C   0  0  0  0  0  0  0  0  0  0  0  0
    3.4964    0.2772    0.2750 O   0  0  0  0  0  0  0  0  0  0  0  0
    4.7676    0.2140    0.8504 C   0  0  0  0  0  0  0  0  0  0  0  0
    5.8495   -0.1121   -0.1279 C   0  0  0  0  0  0  0  0  0  0  0  0
    6.5403    0.8547   -0.8260 C   0  0  0  0  0  0  0  0  0  0  0  0
    7.5207    0.4405   -1.7039 C   0  0  0  0  0  0  0  0  0  0  0  0
    7.7967   -0.9112   -1.8732 C   0  0  0  0  0  0  0  0  0  0  0  0
    7.1047   -1.8874   -1.1736 C   0  0  0  0  0  0  0  0  0  0  0  0
    6.1328   -1.4483   -0.3051 C   0  0  0  0  0  0  0  0  0  0  0  0
    1.1453    0.6400    0.5470 C   0  0  0  0  0  0  0  0  0  0  0  0
   -1.7428   -0.4537    0.4554 C   0  0  0  0  0  0  0  0  0  0  0  0
   -1.5233   -1.1436   -0.7037 C   0  0  0  0  0  0  0  0  0  0  0  0
   -1.9290   -2.4686   -0.8896 C   0  0  0  0  0  0  0  0  0  0  0  0
   -2.5793   -3.1012    0.1488 C   0  0  0  0  0  0  0  0  0  0  0  0
   -2.9761   -4.4083   -0.0439 C   0  0  0  0  0  0  0  0  0  0  0  0
   -3.6270   -5.0770    0.9631 C   0  0  0  0  0  0  0  0  0  0  0  0
   -3.8485   -4.3776    2.1368 C   0  0  0  0  0  0  0  0  0  0  0  0
   -3.4481   -3.0930    2.3003 N   0  0  0  0  0  0  0  0  0  0  0  0
   -2.8052   -2.4154    1.3212 C   0  0  0  0  0  0  0  0  0  0  0  0
   -2.3967   -1.0902    1.4997 C   0  0  0  0  0  0  0  0  0  0  0  0
   -2.6544   -0.4546    2.7047 O   0  0  0  0  0  0  0  0  0  0  0  0
   -3.2765    2.9779   -0.9766 C   0  0  0  0  0  0  0  0  0  0  0  0
   -4.8356    4.9812   -0.4671 H   0  0  0  0  0  0  0  0  0  0  0  0
   -5.4533    5.0985   -2.1423 H   0  0  0  0  0  0  0  0  0  0  0  0
   -6.3580    4.0823   -0.9856 H   0  0  0  0  0  0  0  0  0  0  0  0
   -5.8865    2.5707   -3.1029 H   0  0  0  0  0  0  0  0  0  0  0  0
   -4.4676    0.6064   -3.6585 H   0  0  0  0  0  0  0  0  0  0  0  0
   -0.4441    2.1259   -1.0570 H   0  0  0  0  0  0  0  0  0  0  0  0
   -2.0384    1.4201    1.3120 H   0  0  0  0  0  0  0  0  0  0  0  0
   -0.6872    1.3812    3.2446 H   0  0  0  0  0  0  0  0  0  0  0  0
    1.5378    1.2824    4.3134 H   0  0  0  0  0  0  0  0  0  0  0  0
    3.5488    0.7568    2.9133 H   0  0  0  0  0  0  0  0  0  0  0  0
    5.0195    1.2131    1.3104 H   0  0  0  0  0  0  0  0  0  0  0  0
    4.8557   -0.5055    1.6898 H   0  0  0  0  0  0  0  0  0  0  0  0
    6.2993    1.9019   -0.6697 H   0  0  0  0  0  0  0  0  0  0  0  0
    8.0717    1.1797   -2.2585 H   0  0  0  0  0  0  0  0  0  0  0  0
    8.5646   -1.2667   -2.5586 H   0  0  0  0  0  0  0  0  0  0  0  0
    7.3172   -2.9337   -1.3037 H   0  0  0  0  0  0  0  0  0  0  0  0
    5.5833   -2.2172    0.2504 H   0  0  0  0  0  0  0  0  0  0  0  0
    1.0609    0.4551   -0.5180 H   0  0  0  0  0  0  0  0  0  0  0  0
   -1.0099   -0.7080   -1.5569 H   0  0  0  0  0  0  0  0  0  0  0  0
   -1.7374   -2.9924   -1.8306 H   0  0  0  0  0  0  0  0  0  0  0  0
   -2.7905   -4.9282   -0.9687 H   0  0  0  0  0  0  0  0  0  0  0  0
   -3.9421   -6.1060    0.8178 H   0  0  0  0  0  0  0  0  0  0  0  0
   -4.3599   -4.9057    2.9250 H   0  0  0  0  0  0  0  0  0  0  0  0
   -2.0673   -0.5773    3.4988 H   0  0  0  0  0  0  0  0  0  0  0  0
   -2.9576    3.6588   -0.2226 H   0  0  0  0  0  0  0  0  0  0  0  0
  1  2  1  0
  2  3  2  0
  3  4  1  0
  4  5  2  0
  5  6  1  0
  6  7  1  0
  7  8  1  0
  8  9  1  0
  9 10  2  0
 10 11  1  0
 11 12  2  0
 12 13  1  0
 13 14  1  0
 14 15  1  0
 15 16  1  0
 16 17  2  0
 17 18  1  0
 18 19  2  0
 19 20  1  0
 20 21  2  0
 13 22  2  0
  8 23  1  0
 23 24  2  0
 24 25  1  0
 25 26  2  0
 26 27  1  0
 27 28  2  0
 28 29  1  0
 29 30  2  0
 30 31  1  0
 31 32  2  0
 32 33  1  0
  6 34  2  0
 34  2  1  0
 22  9  1  0
 21 16  1  0
 32 23  1  0
 31 26  1  0
  1 35  1  0
  1 36  1  0
  1 37  1  0
  3 38  1  0
  4 39  1  0
  7 40  1  0
  8 41  1  0
 10 42  1  0
 11 43  1  0
 12 44  1  0
 15 45  1  0
 15 46  1  0
 17 47  1  0
 18 48  1  0
 19 49  1  0
 20 50  1  0
 21 51  1  0
 22 52  1  0
 24 53  1  0
 25 54  1  0
 27 55  1  0
 28 56  1  0
 29 57  1  0
 33 58  1  0
 34 59  1  0
M  END
>  <Batch_No>  (266) 
4896-3773

>  <EC50_nM>  (266) 
1015

>  <Set>  (266) 
Probe-like

>  <Molecular_Weight>  (266) 
447.5277

>  <ALogP>  (266) 
6.22

$$$$
MMV000619
     RDKit          3D

 57 59  0  0  0  0  0  0  0  0999 V2000
    3.6396    1.2558    2.7621 C   0  0  0  0  0  0  0  0  0  0  0  0
    3.2119    2.4506    1.9549 C   0  0  0  0  0  0  0  0  0  0  0  0
    1.9523    2.0687    1.2026 C   0  0  0  0  0  0  0  0  0  0  0  0
    2.2791    0.9014    0.3023 C   0  0  0  0  0  0  0  0  0  0  0  0
    1.0771    0.4262   -0.5315 C   0  0  0  0  0  0  0  0  0  0  0  0
    0.8239    1.6920   -1.2292 O   0  0  0  0  0  0  0  0  0  0  0  0
   -0.1761    0.2853    0.1677 C   0  0  0  0  0  0  0  0  0  0  0  0
   -1.2128   -0.2422   -0.8006 C   0  0  0  0  0  0  0  0  0  0  0  0
   -2.5426   -0.4173   -0.2798 N   0  0  0  0  0  0  0  0  0  0  0  0
   -3.2728    0.7831   -0.0194 C   0  0  0  0  0  0  0  0  0  0  0  0
   -4.1766    1.2204   -1.1339 C   0  0  0  0  0  0  0  0  0  0  0  0
   -4.7314    0.1936   -1.8633 O   0  0  0  0  0  0  0  0  0  0  0  0
   -3.7858   -0.7575   -2.2772 C   0  0  0  0  0  0  0  0  0  0  0  0
   -3.2836   -1.4110   -0.9944 C   0  0  0  0  0  0  0  0  0  0  0  0
   -0.3774   -0.3193    1.4674 C   0  0  0  0  0  0  0  0  0  0  0  0
    0.1845   -1.5341    1.8781 C   0  0  0  0  0  0  0  0  0  0  0  0
   -0.0343   -2.0775    3.1291 C   0  0  0  0  0  0  0  0  0  0  0  0
   -0.8250   -1.4612    4.0683 C   0  0  0  0  0  0  0  0  0  0  0  0
   -1.1072   -2.1402    5.6515 Cl  0  0  0  0  0  0  0  0  0  0  0  0
   -1.3931   -0.2616    3.6952 C   0  0  0  0  0  0  0  0  0  0  0  0
   -1.1806    0.2819    2.4588 C   0  0  0  0  0  0  0  0  0  0  0  0
    1.4884   -0.4172   -1.6603 C   0  0  0  0  0  0  0  0  0  0  0  0
    1.4590   -1.7916   -1.6916 C   0  0  0  0  0  0  0  0  0  0  0  0
    1.9037   -2.5393   -2.7922 C   0  0  0  0  0  0  0  0  0  0  0  0
    2.4016   -1.9253   -3.9201 C   0  0  0  0  0  0  0  0  0  0  0  0
    2.9581   -2.8444   -5.2999 Cl  0  0  0  0  0  0  0  0  0  0  0  0
    2.4395   -0.5515   -3.9097 C   0  0  0  0  0  0  0  0  0  0  0  0
    2.0064    0.1749   -2.8375 C   0  0  0  0  0  0  0  0  0  0  0  0
    4.2775    0.6224    2.1448 H   0  0  0  0  0  0  0  0  0  0  0  0
    2.7502    0.6239    3.0481 H   0  0  0  0  0  0  0  0  0  0  0  0
    4.1242    1.5780    3.7045 H   0  0  0  0  0  0  0  0  0  0  0  0
    2.9682    3.3145    2.5884 H   0  0  0  0  0  0  0  0  0  0  0  0
    3.9657    2.7429    1.1886 H   0  0  0  0  0  0  0  0  0  0  0  0
    1.1648    1.7496    1.9119 H   0  0  0  0  0  0  0  0  0  0  0  0
    1.5165    2.9045    0.6371 H   0  0  0  0  0  0  0  0  0  0  0  0
    2.5977    0.1130    1.0149 H   0  0  0  0  0  0  0  0  0  0  0  0
    3.1088    1.2048   -0.3740 H   0  0  0  0  0  0  0  0  0  0  0  0
    0.2888    1.5420   -2.0178 H   0  0  0  0  0  0  0  0  0  0  0  0
   -0.5766    1.3478    0.3412 H   0  0  0  0  0  0  0  0  0  0  0  0
   -1.3820    0.5133   -1.6384 H   0  0  0  0  0  0  0  0  0  0  0  0
   -0.8911   -1.1920   -1.3014 H   0  0  0  0  0  0  0  0  0  0  0  0
   -2.5455    1.6054    0.1261 H   0  0  0  0  0  0  0  0  0  0  0  0
   -3.8202    0.6666    0.9371 H   0  0  0  0  0  0  0  0  0  0  0  0
   -4.9996    1.8055   -0.6795 H   0  0  0  0  0  0  0  0  0  0  0  0
   -3.6326    1.9376   -1.8104 H   0  0  0  0  0  0  0  0  0  0  0  0
   -4.3111   -1.4836   -2.9293 H   0  0  0  0  0  0  0  0  0  0  0  0
   -2.9241   -0.2553   -2.7326 H   0  0  0  0  0  0  0  0  0  0  0  0
   -4.2015   -1.6295   -0.3938 H   0  0  0  0  0  0  0  0  0  0  0  0
   -2.6556   -2.2823   -1.1932 H   0  0  0  0  0  0  0  0  0  0  0  0
    0.8219   -2.0782    1.2346 H   0  0  0  0  0  0  0  0  0  0  0  0
    0.4339   -3.0363    3.3969 H   0  0  0  0  0  0  0  0  0  0  0  0
   -2.0184    0.2394    4.4178 H   0  0  0  0  0  0  0  0  0  0  0  0
   -1.6494    1.2332    2.2578 H   0  0  0  0  0  0  0  0  0  0  0  0
    1.0904   -2.3983   -0.8825 H   0  0  0  0  0  0  0  0  0  0  0  0
    1.8658   -3.6233   -2.7837 H   0  0  0  0  0  0  0  0  0  0  0  0
    2.8309   -0.0652   -4.7938 H   0  0  0  0  0  0  0  0  0  0  0  0
    2.0764    1.2569   -2.9169 H   0  0  0  0  0  0  0  0  0  0  0  0
  1  2  1  0
  2  3  1  0
  3  4  1  0
  4  5  1  0
  5  6  1  0
  5  7  1  0
  7  8  1  0
  8  9  1  0
  9 10  1  0
 10 11  1  0
 11 12  1  0
 12 13  1  0
 13 14  1  0
  7 15  1  0
 15 16  2  0
 16 17  1  0
 17 18  2  0
 18 19  1  0
 18 20  1  0
 20 21  2  0
  5 22  1  0
 22 23  2  0
 23 24  1  0
 24 25  2  0
 25 26  1  0
 25 27  1  0
 27 28  2  0
 14  9  1  0
 21 15  1  0
 28 22  1  0
  1 29  1  0
  1 30  1  0
  1 31  1  0
  2 32  1  0
  2 33  1  0
  3 34  1  0
  3 35  1  0
  4 36  1  0
  4 37  1  0
  6 38  1  0
  7 39  1  0
  8 40  1  0
  8 41  1  0
 10 42  1  0
 10 43  1  0
 11 44  1  0
 11 45  1  0
 13 46  1  0
 13 47  1  0
 14 48  1  0
 14 49  1  0
 16 50  1  0
 17 51  1  0
 20 52  1  0
 21 53  1  0
 23 54  1  0
 24 55  1  0
 27 56  1  0
 28 57  1  0
M  END
>  <Batch_No>  (267) 
D168-0059

>  <EC50_nM>  (267) 
1380

>  <Set>  (267) 
Probe-like

>  <Molecular_Weight>  (267) 
422.38786

>  <ALogP>  (267) 
5.593

$$$$
MMV006753
     RDKit          3D

 38 41  0  0  0  0  0  0  0  0999 V2000
   -5.7926   -0.0478   -0.2741 C   0  0  0  0  0  0  0  0  0  0  0  0
   -4.4744    0.5254   -0.1570 C   0  0  0  0  0  0  0  0  0  0  0  0
   -4.3169    1.9156   -0.1456 C   0  0  0  0  0  0  0  0  0  0  0  0
   -3.0539    2.4577   -0.0334 C   0  0  0  0  0  0  0  0  0  0  0  0
   -2.9176    3.7101   -0.0236 O   0  0  0  0  0  0  0  0  0  0  0  0
   -1.9611    1.7411    0.0661 O   0  0  0  0  0  0  0  0  0  0  0  0
   -2.0885    0.4373    0.0572 C   0  0  0  0  0  0  0  0  0  0  0  0
   -3.3104   -0.2046   -0.0511 C   0  0  0  0  0  0  0  0  0  0  0  0
   -3.4317   -1.5770   -0.0592 C   0  0  0  0  0  0  0  0  0  0  0  0
   -2.2856   -2.3368    0.0451 C   0  0  0  0  0  0  0  0  0  0  0  0
   -1.0603   -1.6860    0.1537 C   0  0  0  0  0  0  0  0  0  0  0  0
    0.1189   -2.1948    0.2603 O   0  0  0  0  0  0  0  0  0  0  0  0
    1.0699   -1.2622    0.3431 C   0  0  0  0  0  0  0  0  0  0  0  0
    2.4609   -1.6087    0.4712 C   0  0  0  0  0  0  0  0  0  0  0  0
    2.7071   -2.7995    0.8825 O   0  0  0  0  0  0  0  0  0  0  0  0
    3.6101   -0.7935    0.1973 C   0  0  0  0  0  0  0  0  0  0  0  0
    4.7383   -0.9888    0.9871 C   0  0  0  0  0  0  0  0  0  0  0  0
    5.9101   -0.2857    0.7881 C   0  0  0  0  0  0  0  0  0  0  0  0
    6.0016    0.6496   -0.2179 C   0  0  0  0  0  0  0  0  0  0  0  0
    4.9067    0.8556   -1.0036 C   0  0  0  0  0  0  0  0  0  0  0  0
    3.7233    0.1428   -0.8002 C   0  0  0  0  0  0  0  0  0  0  0  0
    0.4106   -0.0729    0.2830 C   0  0  0  0  0  0  0  0  0  0  0  0
    0.9569    1.2992    0.3641 C   0  0  0  0  0  0  0  0  0  0  0  0
   -0.9579   -0.3156    0.1601 C   0  0  0  0  0  0  0  0  0  0  0  0
   -6.2488   -0.1162    0.7536 H   0  0  0  0  0  0  0  0  0  0  0  0
   -6.4565    0.6959   -0.8072 H   0  0  0  0  0  0  0  0  0  0  0  0
   -5.9524   -0.9859   -0.7664 H   0  0  0  0  0  0  0  0  0  0  0  0
   -5.2162    2.5128   -0.2275 H   0  0  0  0  0  0  0  0  0  0  0  0
   -4.3594   -2.0959   -0.1415 H   0  0  0  0  0  0  0  0  0  0  0  0
   -2.3202   -3.4266    0.0444 H   0  0  0  0  0  0  0  0  0  0  0  0
    4.7151   -1.7135    1.7908 H   0  0  0  0  0  0  0  0  0  0  0  0
    6.7671   -0.4691    1.4272 H   0  0  0  0  0  0  0  0  0  0  0  0
    6.9470    1.1758   -0.3315 H   0  0  0  0  0  0  0  0  0  0  0  0
    4.9615    1.5892   -1.8014 H   0  0  0  0  0  0  0  0  0  0  0  0
    2.8977    0.3293   -1.4591 H   0  0  0  0  0  0  0  0  0  0  0  0
    1.8457    1.2537    1.0595 H   0  0  0  0  0  0  0  0  0  0  0  0
    1.2305    1.7525   -0.5938 H   0  0  0  0  0  0  0  0  0  0  0  0
    0.2254    1.9375    0.9272 H   0  0  0  0  0  0  0  0  0  0  0  0
  1  2  1  0
  2  3  2  0
  3  4  1  0
  4  5  2  0
  4  6  1  0
  6  7  1  0
  7  8  2  0
  8  9  1  0
  9 10  2  0
 10 11  1  0
 11 12  1  0
 12 13  1  0
 13 14  1  0
 14 15  2  0
 14 16  1  0
 16 17  2  0
 17 18  1  0
 18 19  2  0
 19 20  1  0
 20 21  2  0
 13 22  2  0
 22 23  1  0
 22 24  1  0
  8  2  1  0
 24  7  1  0
 24 11  2  0
 21 16  1  0
  1 25  1  0
  1 26  1  0
  1 27  1  0
  3 28  1  0
  9 29  1  0
 10 30  1  0
 17 31  1  0
 18 32  1  0
 19 33  1  0
 20 34  1  0
 21 35  1  0
 23 36  1  0
 23 37  1  0
 23 38  1  0
M  END
>  <Batch_No>  (268) 
4808-0480

>  <EC50_nM>  (268) 
ND

>  <Set>  (268) 
Probe-like

>  <Molecular_Weight>  (268) 
318.32276

>  <ALogP>  (268) 
4.831

$$$$
MMV006787
     RDKit          3D

 49 51  0  0  0  0  0  0  0  0999 V2000
    6.1139   -0.8424   -0.8733 C   0  0  0  0  0  0  0  0  0  0  0  0
    5.5589   -0.1716    0.3740 C   0  0  0  0  0  0  0  0  0  0  0  0
    5.6578    1.3304    0.2735 C   0  0  0  0  0  0  0  0  0  0  0  0
    4.0999   -0.5109    0.5779 C   0  0  0  0  0  0  0  0  0  0  0  0
    3.3264   -0.0338   -0.6175 C   0  0  0  0  0  0  0  0  0  0  0  0
    1.9110   -0.3292   -0.4990 N   0  0  0  0  0  0  0  0  0  0  0  0
    1.3060    0.4618    0.5396 C   0  0  0  0  0  0  0  0  0  0  0  0
   -0.1669    0.1427    0.6470 C   0  0  0  0  0  0  0  0  0  0  0  0
   -0.6982    0.9445    1.6740 O   0  0  0  0  0  0  0  0  0  0  0  0
   -0.9075    0.4628   -0.6514 C   0  0  0  0  0  0  0  0  0  0  0  0
   -2.2943    0.1183   -0.4122 N   0  0  0  0  0  0  0  0  0  0  0  0
   -3.2020    0.9774    0.0789 C   0  0  0  0  0  0  0  0  0  0  0  0
   -3.1214    2.3090    0.4642 C   0  0  0  0  0  0  0  0  0  0  0  0
   -4.2254    2.9755    0.9467 C   0  0  0  0  0  0  0  0  0  0  0  0
   -5.4641    2.3678    1.0753 C   0  0  0  0  0  0  0  0  0  0  0  0
   -5.5239    1.0290    0.6816 C   0  0  0  0  0  0  0  0  0  0  0  0
   -4.4306    0.3520    0.1981 C   0  0  0  0  0  0  0  0  0  0  0  0
   -4.2309   -0.9506   -0.2490 C   0  0  0  0  0  0  0  0  0  0  0  0
   -5.1299   -1.9882   -0.3345 C   0  0  0  0  0  0  0  0  0  0  0  0
   -4.6755   -3.2098   -0.8160 C   0  0  0  0  0  0  0  0  0  0  0  0
   -3.3496   -3.3285   -1.1863 C   0  0  0  0  0  0  0  0  0  0  0  0
   -2.4509   -2.2777   -1.0971 C   0  0  0  0  0  0  0  0  0  0  0  0
   -2.9046   -1.0658   -0.6187 C   0  0  0  0  0  0  0  0  0  0  0  0
    5.4104   -1.6619   -1.1336 H   0  0  0  0  0  0  0  0  0  0  0  0
    6.1939   -0.1273   -1.7266 H   0  0  0  0  0  0  0  0  0  0  0  0
    7.0869   -1.3050   -0.7011 H   0  0  0  0  0  0  0  0  0  0  0  0
    6.1253   -0.4823    1.2593 H   0  0  0  0  0  0  0  0  0  0  0  0
    4.9078    1.8424    0.9150 H   0  0  0  0  0  0  0  0  0  0  0  0
    6.6470    1.6499    0.6475 H   0  0  0  0  0  0  0  0  0  0  0  0
    5.4579    1.6370   -0.7679 H   0  0  0  0  0  0  0  0  0  0  0  0
    3.7709    0.0875    1.4750 H   0  0  0  0  0  0  0  0  0  0  0  0
    3.9471   -1.5956    0.7673 H   0  0  0  0  0  0  0  0  0  0  0  0
    3.7465   -0.4799   -1.5470 H   0  0  0  0  0  0  0  0  0  0  0  0
    3.4468    1.0623   -0.6941 H   0  0  0  0  0  0  0  0  0  0  0  0
    1.7576   -1.3430   -0.3166 H   0  0  0  0  0  0  0  0  0  0  0  0
    1.7379    0.2466    1.5439 H   0  0  0  0  0  0  0  0  0  0  0  0
    1.4872    1.5422    0.3350 H   0  0  0  0  0  0  0  0  0  0  0  0
   -0.2903   -0.9210    0.8609 H   0  0  0  0  0  0  0  0  0  0  0  0
   -0.2547    1.8356    1.6785 H   0  0  0  0  0  0  0  0  0  0  0  0
   -0.8144    1.5725   -0.7953 H   0  0  0  0  0  0  0  0  0  0  0  0
   -0.4511   -0.0587   -1.4873 H   0  0  0  0  0  0  0  0  0  0  0  0
   -2.1956    2.8755    0.4038 H   0  0  0  0  0  0  0  0  0  0  0  0
   -4.1743    4.0094    1.2526 H   0  0  0  0  0  0  0  0  0  0  0  0
   -6.3177    2.8983    1.4559 H   0  0  0  0  0  0  0  0  0  0  0  0
   -6.4884    0.5430    0.7777 H   0  0  0  0  0  0  0  0  0  0  0  0
   -6.1704   -1.9103   -0.0515 H   0  0  0  0  0  0  0  0  0  0  0  0
   -5.3601   -4.0421   -0.8988 H   0  0  0  0  0  0  0  0  0  0  0  0
   -2.9848   -4.2849   -1.5687 H   0  0  0  0  0  0  0  0  0  0  0  0
   -1.4198   -2.3528   -1.3804 H   0  0  0  0  0  0  0  0  0  0  0  0
  1  2  1  0
  2  3  1  0
  2  4  1  0
  4  5  1  0
  5  6  1  0
  6  7  1  0
  7  8  1  0
  8  9  1  0
  8 10  1  0
 10 11  1  0
 11 12  1  0
 12 13  2  0
 13 14  1  0
 14 15  2  0
 15 16  1  0
 16 17  2  0
 17 18  1  0
 18 19  2  0
 19 20  1  0
 20 21  2  0
 21 22  1  0
 22 23  2  0
 23 11  1  0
 17 12  1  0
 23 18  1  0
  1 24  1  0
  1 25  1  0
  1 26  1  0
  2 27  1  0
  3 28  1  0
  3 29  1  0
  3 30  1  0
  4 31  1  0
  4 32  1  0
  5 33  1  0
  5 34  1  0
  6 35  1  0
  7 36  1  0
  7 37  1  0
  8 38  1  0
  9 39  1  0
 10 40  1  0
 10 41  1  0
 13 42  1  0
 14 43  1  0
 15 44  1  0
 16 45  1  0
 19 46  1  0
 20 47  1  0
 21 48  1  0
 22 49  1  0
M  END
>  <Batch_No>  (269) 
STK726870

>  <EC50_nM>  (269) 
473

>  <Set>  (269) 
Probe-like

>  <Molecular_Weight>  (269) 
310.4332

>  <ALogP>  (269) 
4.201

$$$$
MMV665794
     RDKit          3D

 46 49  0  0  0  0  0  0  0  0999 V2000
   -6.7145    2.8353   -0.7251 F   0  0  0  0  0  0  0  0  0  0  0  0
   -5.3676    3.0501   -0.5414 C   0  0  0  0  0  0  0  0  0  0  0  0
   -4.8418    3.5375   -1.7335 F   0  0  0  0  0  0  0  0  0  0  0  0
   -5.2556    4.0625    0.3735 F   0  0  0  0  0  0  0  0  0  0  0  0
   -4.6710    1.7989   -0.1320 C   0  0  0  0  0  0  0  0  0  0  0  0
   -5.4613    0.6722    0.0369 C   0  0  0  0  0  0  0  0  0  0  0  0
   -4.8685   -0.4967    0.4086 C   0  0  0  0  0  0  0  0  0  0  0  0
   -3.4940   -0.5599    0.6148 C   0  0  0  0  0  0  0  0  0  0  0  0
   -2.6758    0.5538    0.4519 C   0  0  0  0  0  0  0  0  0  0  0  0
   -1.2729    0.5217    0.6273 N   0  0  0  0  0  0  0  0  0  0  0  0
   -0.4688   -0.6343    0.6209 C   0  0  0  0  0  0  0  0  0  0  0  0
   -0.9668   -1.8733    0.3730 N   0  0  0  0  0  0  0  0  0  0  0  0
   -0.2468   -2.9964    0.3715 C   0  0  0  0  0  0  0  0  0  0  0  0
   -0.7853   -4.2344    0.1152 C   0  0  0  0  0  0  0  0  0  0  0  0
    0.0241   -5.3413    0.1301 C   0  0  0  0  0  0  0  0  0  0  0  0
    1.3770   -5.2437    0.3986 C   0  0  0  0  0  0  0  0  0  0  0  0
    1.9185   -4.0018    0.6567 C   0  0  0  0  0  0  0  0  0  0  0  0
    1.0981   -2.8910    0.6401 C   0  0  0  0  0  0  0  0  0  0  0  0
    1.6363   -1.7014    0.8894 N   0  0  0  0  0  0  0  0  0  0  0  0
    0.8773   -0.5828    0.8831 C   0  0  0  0  0  0  0  0  0  0  0  0
    1.5855    0.6305    1.1556 N   0  0  0  0  0  0  0  0  0  0  0  0
    2.4205    1.1033    0.0913 C   0  0  0  0  0  0  0  0  0  0  0  0
    2.2243    0.7526   -1.2239 C   0  0  0  0  0  0  0  0  0  0  0  0
    3.1255    1.2277   -2.1809 C   0  0  0  0  0  0  0  0  0  0  0  0
    4.2024    2.0406   -1.8152 C   0  0  0  0  0  0  0  0  0  0  0  0
    4.3992    2.3936   -0.4892 C   0  0  0  0  0  0  0  0  0  0  0  0
    3.4973    1.9188    0.4690 C   0  0  0  0  0  0  0  0  0  0  0  0
    5.5631    3.2540   -0.0823 C   0  0  0  0  0  0  0  0  0  0  0  0
    6.7242    2.5218   -0.3483 F   0  0  0  0  0  0  0  0  0  0  0  0
    5.5907    4.4331   -0.7634 F   0  0  0  0  0  0  0  0  0  0  0  0
    5.5379    3.4514    1.2640 F   0  0  0  0  0  0  0  0  0  0  0  0
   -3.3146    1.7194    0.0754 C   0  0  0  0  0  0  0  0  0  0  0  0
   -6.5311    0.6745   -0.1120 H   0  0  0  0  0  0  0  0  0  0  0  0
   -5.4757   -1.3901    0.5456 H   0  0  0  0  0  0  0  0  0  0  0  0
   -3.1216   -1.5237    0.9161 H   0  0  0  0  0  0  0  0  0  0  0  0
   -0.7950    1.4383    0.7788 H   0  0  0  0  0  0  0  0  0  0  0  0
   -1.8612   -4.3203   -0.1010 H   0  0  0  0  0  0  0  0  0  0  0  0
   -0.3549   -6.3457   -0.0652 H   0  0  0  0  0  0  0  0  0  0  0  0
    2.0370   -6.1004    0.4188 H   0  0  0  0  0  0  0  0  0  0  0  0
    2.9751   -3.8683    0.8736 H   0  0  0  0  0  0  0  0  0  0  0  0
    1.5201    1.1463    2.0389 H   0  0  0  0  0  0  0  0  0  0  0  0
    1.3847    0.1264   -1.4901 H   0  0  0  0  0  0  0  0  0  0  0  0
    3.0172    0.9830   -3.2245 H   0  0  0  0  0  0  0  0  0  0  0  0
    4.8917    2.3941   -2.5931 H   0  0  0  0  0  0  0  0  0  0  0  0
    3.6812    2.2113    1.4790 H   0  0  0  0  0  0  0  0  0  0  0  0
   -2.7643    2.6527   -0.0766 H   0  0  0  0  0  0  0  0  0  0  0  0
  1  2  1  0
  2  3  1  0
  2  4  1  0
  2  5  1  0
  5  6  2  0
  6  7  1  0
  7  8  2  0
  8  9  1  0
  9 10  1  0
 10 11  1  0
 11 12  2  0
 12 13  1  0
 13 14  2  0
 14 15  1  0
 15 16  2  0
 16 17  1  0
 17 18  2  0
 18 19  1  0
 19 20  2  0
 20 21  1  0
 21 22  1  0
 22 23  2  0
 23 24  1  0
 24 25  2  0
 25 26  1  0
 26 27  2  0
 26 28  1  0
 28 29  1  0
 28 30  1  0
 28 31  1  0
  9 32  2  0
 32  5  1  0
 20 11  1  0
 18 13  1  0
 27 22  1  0
  6 33  1  0
  7 34  1  0
  8 35  1  0
 10 36  1  0
 14 37  1  0
 15 38  1  0
 16 39  1  0
 17 40  1  0
 21 41  1  0
 23 42  1  0
 24 43  1  0
 25 44  1  0
 27 45  1  0
 32 46  1  0
M  END
>  <Batch_No>  (270) 
AG-670/12464049

>  <EC50_nM>  (270) 
313

>  <Set>  (270) 
Probe-like

>  <Molecular_Weight>  (270) 
448.36377

>  <ALogP>  (270) 
6.082

$$$$
MMV000917
     RDKit          3D

 52 56  0  0  0  0  0  0  0  0999 V2000
   -5.5717   -3.5798   -1.2917 C   0  0  0  0  0  0  0  0  0  0  0  0
   -5.2601   -2.3161   -0.7676 O   0  0  0  0  0  0  0  0  0  0  0  0
   -4.0063   -1.7303   -0.7976 C   0  0  0  0  0  0  0  0  0  0  0  0
   -2.8991   -2.3546   -1.3668 C   0  0  0  0  0  0  0  0  0  0  0  0
   -1.6751   -1.7006   -1.3563 C   0  0  0  0  0  0  0  0  0  0  0  0
   -1.6026   -0.4472   -0.7777 C   0  0  0  0  0  0  0  0  0  0  0  0
   -0.3888    0.4105   -0.6260 C   0  0  0  0  0  0  0  0  0  0  0  0
    0.5573   -0.1769    0.4093 C   0  0  0  0  0  0  0  0  0  0  0  0
    1.8695    0.4759    0.2900 C   0  0  0  0  0  0  0  0  0  0  0  0
    2.1507    1.7437    0.2804 N   0  0  0  0  0  0  0  0  0  0  0  0
    1.2332    2.8153    0.3846 C   0  0  0  0  0  0  0  0  0  0  0  0
    1.8653    4.0348    0.6582 C   0  0  0  0  0  0  0  0  0  0  0  0
    1.0484    5.1395    0.7553 C   0  0  0  0  0  0  0  0  0  0  0  0
   -0.3106    5.1149    0.6033 C   0  0  0  0  0  0  0  0  0  0  0  0
   -0.9386    3.9114    0.3328 C   0  0  0  0  0  0  0  0  0  0  0  0
   -0.1461    2.7939    0.2322 C   0  0  0  0  0  0  0  0  0  0  0  0
   -0.9080    1.6282   -0.0266 N   0  0  0  0  0  0  0  0  0  0  0  0
   -2.2832    1.5085    0.2820 C   0  0  0  0  0  0  0  0  0  0  0  0
   -3.0860    2.2803    0.8462 O   0  0  0  0  0  0  0  0  0  0  0  0
   -2.6866    0.1875   -0.2106 C   0  0  0  0  0  0  0  0  0  0  0  0
   -3.9074   -0.4655   -0.2207 C   0  0  0  0  0  0  0  0  0  0  0  0
   -5.0320    0.1552    0.3511 O   0  0  0  0  0  0  0  0  0  0  0  0
   -5.2237   -0.1283    1.7382 C   0  0  0  0  0  0  0  0  0  0  0  0
    3.0843   -0.3357    0.1614 C   0  0  0  0  0  0  0  0  0  0  0  0
    3.1050   -1.7021    0.1460 C   0  0  0  0  0  0  0  0  0  0  0  0
    4.2966   -2.4048    0.0185 C   0  0  0  0  0  0  0  0  0  0  0  0
    5.5128   -1.7664   -0.0984 C   0  0  0  0  0  0  0  0  0  0  0  0
    6.8025   -2.4705   -0.2359 C   0  0  0  0  0  0  0  0  0  0  0  0
    5.5050   -0.3960   -0.0842 C   0  0  0  0  0  0  0  0  0  0  0  0
    4.3237    0.2951    0.0422 C   0  0  0  0  0  0  0  0  0  0  0  0
   -4.8034   -4.3099   -1.0163 H   0  0  0  0  0  0  0  0  0  0  0  0
   -5.6750   -3.4948   -2.4125 H   0  0  0  0  0  0  0  0  0  0  0  0
   -6.5937   -3.8474   -0.9304 H   0  0  0  0  0  0  0  0  0  0  0  0
   -3.0300   -3.3391   -1.8032 H   0  0  0  0  0  0  0  0  0  0  0  0
   -0.8332   -2.2054   -1.8034 H   0  0  0  0  0  0  0  0  0  0  0  0
    0.0986    0.6614   -1.5637 H   0  0  0  0  0  0  0  0  0  0  0  0
    0.6310   -1.2683    0.2932 H   0  0  0  0  0  0  0  0  0  0  0  0
    0.1518    0.0789    1.4264 H   0  0  0  0  0  0  0  0  0  0  0  0
    2.9382    4.0896    0.7838 H   0  0  0  0  0  0  0  0  0  0  0  0
    1.5397    6.0980    0.9700 H   0  0  0  0  0  0  0  0  0  0  0  0
   -0.8677    6.0338    0.6970 H   0  0  0  0  0  0  0  0  0  0  0  0
   -2.0009    3.9335    0.2018 H   0  0  0  0  0  0  0  0  0  0  0  0
   -6.2303    0.1603    2.0938 H   0  0  0  0  0  0  0  0  0  0  0  0
   -4.4432    0.3186    2.3704 H   0  0  0  0  0  0  0  0  0  0  0  0
   -5.1658   -1.2475    1.8563 H   0  0  0  0  0  0  0  0  0  0  0  0
    2.2207   -2.3021    0.2314 H   0  0  0  0  0  0  0  0  0  0  0  0
    4.3018   -3.4896    0.0073 H   0  0  0  0  0  0  0  0  0  0  0  0
    7.6321   -1.9143    0.2885 H   0  0  0  0  0  0  0  0  0  0  0  0
    7.1137   -2.4752   -1.3142 H   0  0  0  0  0  0  0  0  0  0  0  0
    6.7324   -3.5219    0.0821 H   0  0  0  0  0  0  0  0  0  0  0  0
    6.4461    0.1352   -0.1743 H   0  0  0  0  0  0  0  0  0  0  0  0
    4.4085    1.3864    0.0443 H   0  0  0  0  0  0  0  0  0  0  0  0
  1  2  1  0
  2  3  1  0
  3  4  2  0
  4  5  1  0
  5  6  2  0
  6  7  1  0
  7  8  1  0
  8  9  1  0
  9 10  2  0
 10 11  1  0
 11 12  2  0
 12 13  1  0
 13 14  2  0
 14 15  1  0
 15 16  2  0
 16 17  1  0
 17 18  1  0
 18 19  2  0
 18 20  1  0
 20 21  2  0
 21 22  1  0
 22 23  1  0
  9 24  1  0
 24 25  2  0
 25 26  1  0
 26 27  2  0
 27 28  1  0
 27 29  1  0
 29 30  2  0
 21  3  1  0
 20  6  1  0
 17  7  1  0
 16 11  1  0
 30 24  1  0
  1 31  1  0
  1 32  1  0
  1 33  1  0
  4 34  1  0
  5 35  1  0
  7 36  1  0
  8 37  1  0
  8 38  1  0
 12 39  1  0
 13 40  1  0
 14 41  1  0
 15 42  1  0
 23 43  1  0
 23 44  1  0
 23 45  1  0
 25 46  1  0
 26 47  1  0
 28 48  1  0
 28 49  1  0
 28 50  1  0
 29 51  1  0
 30 52  1  0
M  END
>  <Batch_No>  (271) 
2516-2633

>  <EC50_nM>  (271) 
1240

>  <Set>  (271) 
Probe-like

>  <Molecular_Weight>  (271) 
398.45378

>  <ALogP>  (271) 
4.567

$$$$
MMV666125
     RDKit          3D

 38 40  0  0  0  0  0  0  0  0999 V2000
   -0.4433   -1.2926    1.9055 C   0  0  0  0  0  0  0  0  0  0  0  0
   -1.3334   -0.5986    0.9246 C   0  0  0  0  0  0  0  0  0  0  0  0
   -0.9236   -0.0471   -0.1931 C   0  0  0  0  0  0  0  0  0  0  0  0
    0.4241    0.0191   -0.7342 C   0  0  0  0  0  0  0  0  0  0  0  0
    1.4030   -0.9998   -0.3673 C   0  0  0  0  0  0  0  0  0  0  0  0
    1.1147   -2.2296   -0.1651 O   0  0  0  0  0  0  0  0  0  0  0  0
    2.8435   -0.7005   -0.1916 C   0  0  0  0  0  0  0  0  0  0  0  0
    3.7045   -1.7275    0.1627 C   0  0  0  0  0  0  0  0  0  0  0  0
    5.0735   -1.5040    0.3465 C   0  0  0  0  0  0  0  0  0  0  0  0
    5.5963   -0.2412    0.1757 C   0  0  0  0  0  0  0  0  0  0  0  0
    4.7412    0.7781   -0.1766 C   0  0  0  0  0  0  0  0  0  0  0  0
    3.3741    0.5387   -0.3566 C   0  0  0  0  0  0  0  0  0  0  0  0
    5.2513    2.0918   -0.3593 N   0  0  0  0  0  0  0  0  0  0  0  0
    4.4933    3.0182   -0.6767 O   0  0  0  0  0  0  0  0  0  0  0  0
    6.5891    2.3518   -0.1864 O   0  0  0  0  0  0  0  0  0  0  0  0
   -1.9779    0.6000   -1.0301 C   0  0  0  0  0  0  0  0  0  0  0  0
   -1.6599    1.1559   -2.1268 O   0  0  0  0  0  0  0  0  0  0  0  0
   -3.3690    0.6342   -0.6624 C   0  0  0  0  0  0  0  0  0  0  0  0
   -4.3101    1.2455   -1.4714 C   0  0  0  0  0  0  0  0  0  0  0  0
   -5.6320    1.2548   -1.0822 C   0  0  0  0  0  0  0  0  0  0  0  0
   -6.0641    0.6670    0.1074 C   0  0  0  0  0  0  0  0  0  0  0  0
   -5.0994    0.0541    0.9122 C   0  0  0  0  0  0  0  0  0  0  0  0
   -3.7833    0.0546    0.5063 C   0  0  0  0  0  0  0  0  0  0  0  0
   -2.7665   -0.5788    1.3306 C   0  0  0  0  0  0  0  0  0  0  0  0
   -3.1480   -1.1096    2.4017 O   0  0  0  0  0  0  0  0  0  0  0  0
   -0.5596   -2.3799    1.8587 H   0  0  0  0  0  0  0  0  0  0  0  0
   -0.8663   -1.0444    2.9471 H   0  0  0  0  0  0  0  0  0  0  0  0
    0.5635   -0.8782    1.9625 H   0  0  0  0  0  0  0  0  0  0  0  0
    0.3292   -0.0664   -1.8679 H   0  0  0  0  0  0  0  0  0  0  0  0
    0.8180    1.0583   -0.5750 H   0  0  0  0  0  0  0  0  0  0  0  0
    3.3860   -2.7466    0.3184 H   0  0  0  0  0  0  0  0  0  0  0  0
    5.7349   -2.3232    0.6250 H   0  0  0  0  0  0  0  0  0  0  0  0
    6.6509   -0.1061    0.3248 H   0  0  0  0  0  0  0  0  0  0  0  0
    2.7846    1.3749   -0.6282 H   0  0  0  0  0  0  0  0  0  0  0  0
   -4.0459    1.7085   -2.3862 H   0  0  0  0  0  0  0  0  0  0  0  0
   -6.4223    1.7174   -1.6707 H   0  0  0  0  0  0  0  0  0  0  0  0
   -7.1014    0.6736    0.4144 H   0  0  0  0  0  0  0  0  0  0  0  0
   -5.3697   -0.4223    1.8513 H   0  0  0  0  0  0  0  0  0  0  0  0
  1  2  1  0
  2  3  2  0
  3  4  1  0
  4  5  1  0
  5  6  2  0
  5  7  1  0
  7  8  2  0
  8  9  1  0
  9 10  2  0
 10 11  1  0
 11 12  2  0
 11 13  1  0
 13 14  2  0
 13 15  1  0
  3 16  1  0
 16 17  2  0
 16 18  1  0
 18 19  2  0
 19 20  1  0
 20 21  2  0
 21 22  1  0
 22 23  2  0
 23 24  1  0
 24 25  2  0
 24  2  1  0
 12  7  1  0
 23 18  1  0
  1 26  1  0
  1 27  1  0
  1 28  1  0
  4 29  1  0
  4 30  1  0
  8 31  1  0
  9 32  1  0
 10 33  1  0
 12 34  1  0
 19 35  1  0
 20 36  1  0
 21 37  1  0
 22 38  1  0
M  CHG  2  13   1  15  -1
M  END
>  <Batch_No>  (272) 
12E-934

>  <EC50_nM>  (272) 
381

>  <Set>  (272) 
Probe-like

>  <Molecular_Weight>  (272) 
335.31021

>  <ALogP>  (272) 
3.497

$$$$
MMV665987
     RDKit          3D

 49 51  0  0  0  0  0  0  0  0999 V2000
    6.9371    1.4929   -0.6087 C   0  0  0  0  0  0  0  0  0  0  0  0
    5.6857    0.5885   -0.8848 C   0  0  0  0  0  0  0  0  0  0  0  0
    5.6881   -0.3988    0.2066 C   0  0  0  0  0  0  0  0  0  0  0  0
    4.7264   -1.4891    0.2990 C   0  0  0  0  0  0  0  0  0  0  0  0
    3.2672   -1.2824    0.4163 C   0  0  0  0  0  0  0  0  0  0  0  0
    2.6437   -0.6263   -0.7466 C   0  0  0  0  0  0  0  0  0  0  0  0
    1.1394   -0.5003   -0.5756 C   0  0  0  0  0  0  0  0  0  0  0  0
    0.5832    0.6117    0.0226 C   0  0  0  0  0  0  0  0  0  0  0  0
   -0.7610    0.7566    0.1918 C   0  0  0  0  0  0  0  0  0  0  0  0
   -1.2527    1.8808    0.7915 O   0  0  0  0  0  0  0  0  0  0  0  0
   -1.6193   -0.2097   -0.2318 C   0  0  0  0  0  0  0  0  0  0  0  0
   -2.9904   -0.1545   -0.1058 C   0  0  0  0  0  0  0  0  0  0  0  0
   -3.7341   -1.2092   -0.5821 C   0  0  0  0  0  0  0  0  0  0  0  0
   -5.2250   -1.2517   -0.4968 C   0  0  0  0  0  0  0  0  0  0  0  0
   -5.6710    0.1958   -0.5557 C   0  0  0  0  0  0  0  0  0  0  0  0
   -5.1038    0.9052    0.6286 C   0  0  0  0  0  0  0  0  0  0  0  0
   -5.6968    2.2911    0.7738 C   0  0  0  0  0  0  0  0  0  0  0  0
   -3.5764    1.0447    0.5387 C   0  0  0  0  0  0  0  0  0  0  0  0
   -3.1282   -2.3037   -1.1751 C   0  0  0  0  0  0  0  0  0  0  0  0
   -3.8144   -3.2850   -1.6186 O   0  0  0  0  0  0  0  0  0  0  0  0
   -1.8247   -2.3246   -1.2790 O   0  0  0  0  0  0  0  0  0  0  0  0
   -1.0816   -1.3424   -0.8391 C   0  0  0  0  0  0  0  0  0  0  0  0
    0.2905   -1.4868   -1.0100 C   0  0  0  0  0  0  0  0  0  0  0  0
    6.9772    1.6372    0.4946 H   0  0  0  0  0  0  0  0  0  0  0  0
    6.8201    2.4488   -1.1556 H   0  0  0  0  0  0  0  0  0  0  0  0
    7.8328    0.9520   -0.9749 H   0  0  0  0  0  0  0  0  0  0  0  0
    5.8336    0.2105   -1.9054 H   0  0  0  0  0  0  0  0  0  0  0  0
    4.8773    1.3523   -0.8106 H   0  0  0  0  0  0  0  0  0  0  0  0
    6.7370   -0.8722    0.1819 H   0  0  0  0  0  0  0  0  0  0  0  0
    5.6973    0.1905    1.1758 H   0  0  0  0  0  0  0  0  0  0  0  0
    4.9572   -2.2941   -0.4840 H   0  0  0  0  0  0  0  0  0  0  0  0
    5.0242   -2.0771    1.2515 H   0  0  0  0  0  0  0  0  0  0  0  0
    2.7275   -2.2134    0.7403 H   0  0  0  0  0  0  0  0  0  0  0  0
    3.1255   -0.6110    1.3335 H   0  0  0  0  0  0  0  0  0  0  0  0
    2.9489    0.4229   -0.8761 H   0  0  0  0  0  0  0  0  0  0  0  0
    2.7836   -1.1538   -1.7092 H   0  0  0  0  0  0  0  0  0  0  0  0
    1.2867    1.3851    0.3605 H   0  0  0  0  0  0  0  0  0  0  0  0
   -0.7771    2.2043    1.6374 H   0  0  0  0  0  0  0  0  0  0  0  0
   -5.5770   -1.6678    0.4635 H   0  0  0  0  0  0  0  0  0  0  0  0
   -5.6637   -1.7359   -1.3915 H   0  0  0  0  0  0  0  0  0  0  0  0
   -6.7674    0.1787   -0.4152 H   0  0  0  0  0  0  0  0  0  0  0  0
   -5.4759    0.6832   -1.5152 H   0  0  0  0  0  0  0  0  0  0  0  0
   -5.4059    0.3394    1.5336 H   0  0  0  0  0  0  0  0  0  0  0  0
   -6.7788    2.2907    0.6233 H   0  0  0  0  0  0  0  0  0  0  0  0
   -5.4321    2.7233    1.7642 H   0  0  0  0  0  0  0  0  0  0  0  0
   -5.2139    2.9732    0.0140 H   0  0  0  0  0  0  0  0  0  0  0  0
   -3.2938    1.1237    1.6255 H   0  0  0  0  0  0  0  0  0  0  0  0
   -3.4346    1.9787   -0.0262 H   0  0  0  0  0  0  0  0  0  0  0  0
    0.7095   -2.3719   -1.4845 H   0  0  0  0  0  0  0  0  0  0  0  0
  1  2  1  0
  2  3  1  0
  3  4  1  0
  4  5  1  0
  5  6  1  0
  6  7  1  0
  7  8  2  0
  8  9  1  0
  9 10  1  0
  9 11  2  0
 11 12  1  0
 12 13  2  0
 13 14  1  0
 14 15  1  0
 15 16  1  0
 16 17  1  0
 16 18  1  0
 13 19  1  0
 19 20  2  0
 19 21  1  0
 21 22  1  0
 22 23  2  0
 23  7  1  0
 22 11  1  0
 18 12  1  0
  1 24  1  0
  1 25  1  0
  1 26  1  0
  2 27  1  0
  2 28  1  0
  3 29  1  0
  3 30  1  0
  4 31  1  0
  4 32  1  0
  5 33  1  0
  5 34  1  0
  6 35  1  0
  6 36  1  0
  8 37  1  0
 10 38  1  0
 14 39  1  0
 14 40  1  0
 15 41  1  0
 15 42  1  0
 16 43  1  0
 17 44  1  0
 17 45  1  0
 17 46  1  0
 18 47  1  0
 18 48  1  0
 23 49  1  0
M  END
>  <Batch_No>  (273) 
5345420

>  <EC50_nM>  (273) 
534

>  <Set>  (273) 
Probe-like

>  <Molecular_Weight>  (273) 
314.41864

>  <ALogP>  (273) 
6.11

$$$$
MMV007574
     RDKit          3D

 57 62  0  0  0  0  0  0  0  0999 V2000
    5.0890    1.6985   -1.2119 O   0  0  0  0  0  0  0  0  0  0  0  0
    5.5461    1.0423   -0.2721 C   0  0  0  0  0  0  0  0  0  0  0  0
    4.7369    0.1573    0.4789 N   0  0  0  0  0  0  0  0  0  0  0  0
    3.3839   -0.1052    0.2985 C   0  0  0  0  0  0  0  0  0  0  0  0
    2.5591    0.4473   -0.6523 C   0  0  0  0  0  0  0  0  0  0  0  0
    1.2118    0.1298   -0.7656 C   0  0  0  0  0  0  0  0  0  0  0  0
    0.6263   -0.7769    0.0923 C   0  0  0  0  0  0  0  0  0  0  0  0
    1.4383   -1.3404    1.0515 C   0  0  0  0  0  0  0  0  0  0  0  0
    2.7648   -1.0230    1.1573 C   0  0  0  0  0  0  0  0  0  0  0  0
   -0.8038   -1.0740   -0.0743 C   0  0  0  0  0  0  0  0  0  0  0  0
   -1.2828   -2.0865    0.9390 C   0  0  0  0  0  0  0  0  0  0  0  0
   -2.6919   -2.4906    0.6486 C   0  0  0  0  0  0  0  0  0  0  0  0
   -2.7819   -3.0598   -0.7532 C   0  0  0  0  0  0  0  0  0  0  0  0
   -2.4562   -1.9522   -1.7042 C   0  0  0  0  0  0  0  0  0  0  0  0
   -3.2994   -0.7200   -1.5249 C   0  0  0  0  0  0  0  0  0  0  0  0
   -3.0960   -0.1760   -0.1220 C   0  0  0  0  0  0  0  0  0  0  0  0
   -3.5873   -1.2783    0.8074 C   0  0  0  0  0  0  0  0  0  0  0  0
   -1.6686    0.1627    0.1420 C   0  0  0  0  0  0  0  0  0  0  0  0
   -3.9717    1.0293    0.0459 C   0  0  0  0  0  0  0  0  0  0  0  0
   -5.2291    0.9664    0.6051 C   0  0  0  0  0  0  0  0  0  0  0  0
   -6.0398    2.0986    0.7471 C   0  0  0  0  0  0  0  0  0  0  0  0
   -5.5990    3.3146    0.3286 C   0  0  0  0  0  0  0  0  0  0  0  0
   -4.3632    3.4155   -0.2283 C   0  0  0  0  0  0  0  0  0  0  0  0
   -3.5529    2.2898   -0.3715 C   0  0  0  0  0  0  0  0  0  0  0  0
   -0.9884   -1.5988   -1.4847 C   0  0  0  0  0  0  0  0  0  0  0  0
    6.9662    1.2110    0.0434 C   0  0  0  0  0  0  0  0  0  0  0  0
    7.8877    1.9847   -0.5355 C   0  0  0  0  0  0  0  0  0  0  0  0
    9.1438    1.9772   -0.0716 C   0  0  0  0  0  0  0  0  0  0  0  0
    9.4285    1.1610    0.9945 C   0  0  0  0  0  0  0  0  0  0  0  0
    7.8065    0.3205    1.3985 S   0  0  0  0  0  0  0  0  0  0  0  0
    5.2436   -0.3527    1.2641 H   0  0  0  0  0  0  0  0  0  0  0  0
    2.9351    1.1616   -1.3590 H   0  0  0  0  0  0  0  0  0  0  0  0
    0.6009    0.6000   -1.5419 H   0  0  0  0  0  0  0  0  0  0  0  0
    1.0156   -2.0468    1.7324 H   0  0  0  0  0  0  0  0  0  0  0  0
    3.3393   -1.5200    1.9519 H   0  0  0  0  0  0  0  0  0  0  0  0
   -0.6075   -2.9683    0.9176 H   0  0  0  0  0  0  0  0  0  0  0  0
   -1.2796   -1.5687    1.9277 H   0  0  0  0  0  0  0  0  0  0  0  0
   -2.9729   -3.2654    1.3861 H   0  0  0  0  0  0  0  0  0  0  0  0
   -3.7438   -3.5565   -0.9299 H   0  0  0  0  0  0  0  0  0  0  0  0
   -1.9651   -3.8111   -0.8239 H   0  0  0  0  0  0  0  0  0  0  0  0
   -2.5527   -2.3547   -2.7268 H   0  0  0  0  0  0  0  0  0  0  0  0
   -4.3669   -0.9734   -1.6312 H   0  0  0  0  0  0  0  0  0  0  0  0
   -3.0164    0.0059   -2.2881 H   0  0  0  0  0  0  0  0  0  0  0  0
   -4.6344   -1.5536    0.5595 H   0  0  0  0  0  0  0  0  0  0  0  0
   -3.4712   -0.9130    1.8416 H   0  0  0  0  0  0  0  0  0  0  0  0
   -1.3539    0.9825   -0.5120 H   0  0  0  0  0  0  0  0  0  0  0  0
   -1.5408    0.4307    1.2025 H   0  0  0  0  0  0  0  0  0  0  0  0
   -5.6545    0.0568    0.9623 H   0  0  0  0  0  0  0  0  0  0  0  0
   -7.0306    2.0212    1.1929 H   0  0  0  0  0  0  0  0  0  0  0  0
   -6.2474    4.1692    0.4518 H   0  0  0  0  0  0  0  0  0  0  0  0
   -4.0334    4.3975   -0.5549 H   0  0  0  0  0  0  0  0  0  0  0  0
   -2.5967    2.4706   -0.8262 H   0  0  0  0  0  0  0  0  0  0  0  0
   -0.7452   -0.8293   -2.2163 H   0  0  0  0  0  0  0  0  0  0  0  0
   -0.3682   -2.4969   -1.5781 H   0  0  0  0  0  0  0  0  0  0  0  0
    7.6034    2.6387   -1.4101 H   0  0  0  0  0  0  0  0  0  0  0  0
    9.9561    2.5970   -0.5084 H   0  0  0  0  0  0  0  0  0  0  0  0
   10.3101    0.9539    1.5583 H   0  0  0  0  0  0  0  0  0  0  0  0
  1  2  2  0
  2  3  1  0
  3  4  1  0
  4  5  2  0
  5  6  1  0
  6  7  2  0
  7  8  1  0
  8  9  2  0
  7 10  1  0
 10 11  1  0
 11 12  1  0
 12 13  1  0
 13 14  1  0
 14 15  1  0
 15 16  1  0
 16 17  1  0
 16 18  1  0
 16 19  1  0
 19 20  2  0
 20 21  1  0
 21 22  2  0
 22 23  1  0
 23 24  2  0
 14 25  1  0
  2 26  1  0
 26 27  2  0
 27 28  1  0
 28 29  2  0
 29 30  1  0
  9  4  1  0
 18 10  1  0
 25 10  1  0
 17 12  1  0
 24 19  1  0
 30 26  1  0
  3 31  1  0
  5 32  1  0
  6 33  1  0
  8 34  1  0
  9 35  1  0
 11 36  1  0
 11 37  1  0
 12 38  1  0
 13 39  1  0
 13 40  1  0
 14 41  1  0
 15 42  1  0
 15 43  1  0
 17 44  1  0
 17 45  1  0
 18 46  1  0
 18 47  1  0
 20 48  1  0
 21 49  1  0
 22 50  1  0
 23 51  1  0
 24 52  1  0
 25 53  1  0
 25 54  1  0
 27 55  1  0
 28 56  1  0
 29 57  1  0
M  END
>  <Batch_No>  (274) 
0573-2138

>  <EC50_nM>  (274) 
826

>  <Set>  (274) 
Probe-like

>  <Molecular_Weight>  (274) 
413.57438

>  <ALogP>  (274) 
6.216

$$$$
MMV000326
     RDKit          3D

 38 40  0  0  0  0  0  0  0  0999 V2000
   -1.7377    3.3795   -0.2540 C   0  0  0  0  0  0  0  0  0  0  0  0
   -1.9839    1.9272   -0.4354 C   0  0  0  0  0  0  0  0  0  0  0  0
   -2.9816    1.5082   -1.2814 C   0  0  0  0  0  0  0  0  0  0  0  0
   -3.2098    0.1564   -1.4493 C   0  0  0  0  0  0  0  0  0  0  0  0
   -2.4211   -0.7450   -0.7558 C   0  0  0  0  0  0  0  0  0  0  0  0
   -2.6646   -2.0389   -0.9281 N   0  0  0  0  0  0  0  0  0  0  0  0
   -1.9258   -2.9480   -0.2677 C   0  0  0  0  0  0  0  0  0  0  0  0
   -2.2321   -4.3795   -0.4894 C   0  0  0  0  0  0  0  0  0  0  0  0
   -0.9012   -2.5750    0.6013 C   0  0  0  0  0  0  0  0  0  0  0  0
   -0.6226   -1.2246    0.8017 C   0  0  0  0  0  0  0  0  0  0  0  0
    0.4156   -0.8359    1.6871 N   0  0  0  0  0  0  0  0  0  0  0  0
    1.5666   -0.1270    1.3382 C   0  0  0  0  0  0  0  0  0  0  0  0
    2.4424    0.3546    2.3211 C   0  0  0  0  0  0  0  0  0  0  0  0
    3.5824    1.0389    2.0328 C   0  0  0  0  0  0  0  0  0  0  0  0
    3.9439    1.3004    0.7283 C   0  0  0  0  0  0  0  0  0  0  0  0
    3.1089    0.8434   -0.2695 C   0  0  0  0  0  0  0  0  0  0  0  0
    1.9559    0.1509    0.0325 C   0  0  0  0  0  0  0  0  0  0  0  0
    3.4062    1.0719   -1.7107 C   0  0  0  0  0  0  0  0  0  0  0  0
    4.2828    0.0720   -2.1050 F   0  0  0  0  0  0  0  0  0  0  0  0
    2.2386    1.0414   -2.4602 F   0  0  0  0  0  0  0  0  0  0  0  0
    3.9765    2.3124   -1.9271 F   0  0  0  0  0  0  0  0  0  0  0  0
   -1.4092   -0.3367    0.1019 C   0  0  0  0  0  0  0  0  0  0  0  0
   -1.2072    1.0131    0.2481 C   0  0  0  0  0  0  0  0  0  0  0  0
   -2.2325    3.6801    0.6937 H   0  0  0  0  0  0  0  0  0  0  0  0
   -2.1029    3.8995   -1.1491 H   0  0  0  0  0  0  0  0  0  0  0  0
   -0.6571    3.5792   -0.1437 H   0  0  0  0  0  0  0  0  0  0  0  0
   -3.5921    2.2434   -1.8192 H   0  0  0  0  0  0  0  0  0  0  0  0
   -3.9872   -0.2155   -2.1074 H   0  0  0  0  0  0  0  0  0  0  0  0
   -2.0405   -4.9825    0.4139 H   0  0  0  0  0  0  0  0  0  0  0  0
   -1.7211   -4.8116   -1.3590 H   0  0  0  0  0  0  0  0  0  0  0  0
   -3.3399   -4.4700   -0.6780 H   0  0  0  0  0  0  0  0  0  0  0  0
   -0.3468   -3.3548    1.0998 H   0  0  0  0  0  0  0  0  0  0  0  0
    0.2897   -1.1159    2.6927 H   0  0  0  0  0  0  0  0  0  0  0  0
    2.1955    0.1702    3.3704 H   0  0  0  0  0  0  0  0  0  0  0  0
    4.2157    1.3837    2.8407 H   0  0  0  0  0  0  0  0  0  0  0  0
    4.8340    1.8369    0.4412 H   0  0  0  0  0  0  0  0  0  0  0  0
    1.3169   -0.1981   -0.7511 H   0  0  0  0  0  0  0  0  0  0  0  0
   -0.4547    1.3954    0.8959 H   0  0  0  0  0  0  0  0  0  0  0  0
  1  2  1  0
  2  3  2  0
  3  4  1  0
  4  5  2  0
  5  6  1  0
  6  7  2  0
  7  8  1  0
  7  9  1  0
  9 10  2  0
 10 11  1  0
 11 12  1  0
 12 13  2  0
 13 14  1  0
 14 15  2  0
 15 16  1  0
 16 17  2  0
 16 18  1  0
 18 19  1  0
 18 20  1  0
 18 21  1  0
 10 22  1  0
 22 23  2  0
 23  2  1  0
 22  5  1  0
 17 12  1  0
  1 24  1  0
  1 25  1  0
  1 26  1  0
  3 27  1  0
  4 28  1  0
  8 29  1  0
  8 30  1  0
  8 31  1  0
  9 32  1  0
 11 33  1  0
 13 34  1  0
 14 35  1  0
 15 36  1  0
 17 37  1  0
 23 38  1  0
M  END
>  <Batch_No>  (275) 
4491-0981

>  <EC50_nM>  (275) 
1170

>  <Set>  (275) 
Probe-like

>  <Molecular_Weight>  (275) 
316.3203

>  <ALogP>  (275) 
5.277

$$$$
MMV000604
     RDKit          3D

 51 55  0  0  0  0  0  0  0  0999 V2000
    8.8070   -0.8633    1.5483 C   0  0  0  0  0  0  0  0  0  0  0  0
    7.6310   -0.5135    2.2509 O   0  0  0  0  0  0  0  0  0  0  0  0
    6.4512   -0.1679    1.6065 C   0  0  0  0  0  0  0  0  0  0  0  0
    6.3451   -0.1420    0.2431 C   0  0  0  0  0  0  0  0  0  0  0  0
    5.1513    0.2077   -0.3498 C   0  0  0  0  0  0  0  0  0  0  0  0
    4.0200    0.5442    0.3954 C   0  0  0  0  0  0  0  0  0  0  0  0
    4.1713    0.5056    1.7640 C   0  0  0  0  0  0  0  0  0  0  0  0
    5.3596    0.1573    2.3843 C   0  0  0  0  0  0  0  0  0  0  0  0
    2.7915    0.9258   -0.2773 C   0  0  0  0  0  0  0  0  0  0  0  0
    2.8932    1.9690   -1.1994 C   0  0  0  0  0  0  0  0  0  0  0  0
    1.7001    2.3361   -1.8063 C   0  0  0  0  0  0  0  0  0  0  0  0
    1.7387    3.2745   -2.6475 O   0  0  0  0  0  0  0  0  0  0  0  0
    0.5598    1.7652   -1.5513 O   0  0  0  0  0  0  0  0  0  0  0  0
    0.4107    0.7745   -0.6889 C   0  0  0  0  0  0  0  0  0  0  0  0
   -0.8204    0.2020   -0.4561 C   0  0  0  0  0  0  0  0  0  0  0  0
   -2.0248    0.6942   -1.1764 C   0  0  0  0  0  0  0  0  0  0  0  0
   -3.2513    0.3501   -0.4992 N   0  0  0  0  0  0  0  0  0  0  0  0
   -4.3315    0.5465   -1.4472 C   0  0  0  0  0  0  0  0  0  0  0  0
   -5.6638    0.2486   -0.9252 C   0  0  0  0  0  0  0  0  0  0  0  0
   -6.2906   -0.9734   -0.9835 C   0  0  0  0  0  0  0  0  0  0  0  0
   -7.5492   -1.2162   -0.4785 C   0  0  0  0  0  0  0  0  0  0  0  0
   -8.2539   -0.1909    0.1309 C   0  0  0  0  0  0  0  0  0  0  0  0
   -9.4781   -0.4642    0.6114 F   0  0  0  0  0  0  0  0  0  0  0  0
   -7.6488    1.0466    0.2034 C   0  0  0  0  0  0  0  0  0  0  0  0
   -6.3713    1.2773   -0.3135 C   0  0  0  0  0  0  0  0  0  0  0  0
   -3.2857   -1.0191   -0.0522 C   0  0  0  0  0  0  0  0  0  0  0  0
   -2.1423   -1.3938    0.6783 O   0  0  0  0  0  0  0  0  0  0  0  0
   -0.8866   -0.8416    0.4692 C   0  0  0  0  0  0  0  0  0  0  0  0
    0.2483   -1.2782    1.1234 C   0  0  0  0  0  0  0  0  0  0  0  0
    1.4590   -0.6733    0.8575 C   0  0  0  0  0  0  0  0  0  0  0  0
    1.5651    0.3578   -0.0459 C   0  0  0  0  0  0  0  0  0  0  0  0
    9.0109   -0.2396    0.6672 H   0  0  0  0  0  0  0  0  0  0  0  0
    8.6430   -1.9217    1.2084 H   0  0  0  0  0  0  0  0  0  0  0  0
    9.6406   -0.9143    2.2680 H   0  0  0  0  0  0  0  0  0  0  0  0
    7.1835   -0.3918   -0.3934 H   0  0  0  0  0  0  0  0  0  0  0  0
    5.0342    0.2380   -1.4328 H   0  0  0  0  0  0  0  0  0  0  0  0
    3.3530    0.7620    2.4218 H   0  0  0  0  0  0  0  0  0  0  0  0
    5.4338    0.1397    3.4735 H   0  0  0  0  0  0  0  0  0  0  0  0
    3.8381    2.4476   -1.4160 H   0  0  0  0  0  0  0  0  0  0  0  0
   -2.0681    0.2710   -2.2002 H   0  0  0  0  0  0  0  0  0  0  0  0
   -1.9806    1.7950   -1.2086 H   0  0  0  0  0  0  0  0  0  0  0  0
   -4.1166   -0.1106   -2.3224 H   0  0  0  0  0  0  0  0  0  0  0  0
   -4.2389    1.5904   -1.8289 H   0  0  0  0  0  0  0  0  0  0  0  0
   -5.7716   -1.7962   -1.4520 H   0  0  0  0  0  0  0  0  0  0  0  0
   -7.9646   -2.2178   -0.5711 H   0  0  0  0  0  0  0  0  0  0  0  0
   -8.2216    1.8322    0.6853 H   0  0  0  0  0  0  0  0  0  0  0  0
   -5.9680    2.2784   -0.2156 H   0  0  0  0  0  0  0  0  0  0  0  0
   -3.4419   -1.7069   -0.9043 H   0  0  0  0  0  0  0  0  0  0  0  0
   -4.1603   -1.1306    0.6207 H   0  0  0  0  0  0  0  0  0  0  0  0
    0.1743   -2.0981    1.8446 H   0  0  0  0  0  0  0  0  0  0  0  0
    2.3161   -1.0593    1.3877 H   0  0  0  0  0  0  0  0  0  0  0  0
  1  2  1  0
  2  3  1  0
  3  4  2  0
  4  5  1  0
  5  6  2  0
  6  7  1  0
  7  8  2  0
  6  9  1  0
  9 10  2  0
 10 11  1  0
 11 12  2  0
 11 13  1  0
 13 14  1  0
 14 15  2  0
 15 16  1  0
 16 17  1  0
 17 18  1  0
 18 19  1  0
 19 20  2  0
 20 21  1  0
 21 22  2  0
 22 23  1  0
 22 24  1  0
 24 25  2  0
 17 26  1  0
 26 27  1  0
 27 28  1  0
 28 29  2  0
 29 30  1  0
 30 31  2  0
  8  3  1  0
 31  9  1  0
 31 14  1  0
 28 15  1  0
 25 19  1  0
  1 32  1  0
  1 33  1  0
  1 34  1  0
  4 35  1  0
  5 36  1  0
  7 37  1  0
  8 38  1  0
 10 39  1  0
 16 40  1  0
 16 41  1  0
 18 42  1  0
 18 43  1  0
 20 44  1  0
 21 45  1  0
 24 46  1  0
 25 47  1  0
 26 48  1  0
 26 49  1  0
 29 50  1  0
 30 51  1  0
M  END
>  <Batch_No>  (276) 
D144-0115

>  <EC50_nM>  (276) 
735

>  <Set>  (276) 
Probe-like

>  <Molecular_Weight>  (276) 
417.429

>  <ALogP>  (276) 
5.009

$$$$
MMV007557
     RDKit          3D

 75 78  0  0  0  0  0  0  0  0999 V2000
    5.4366   -4.6752   -0.4667 C   0  0  0  0  0  0  0  0  0  0  0  0
    4.6075   -4.0475    0.5261 O   0  0  0  0  0  0  0  0  0  0  0  0
    4.6210   -2.6588    0.5033 C   0  0  0  0  0  0  0  0  0  0  0  0
    5.4012   -1.9908   -0.4307 C   0  0  0  0  0  0  0  0  0  0  0  0
    5.4137   -0.6138   -0.4546 C   0  0  0  0  0  0  0  0  0  0  0  0
    4.6822    0.1610    0.4110 C   0  0  0  0  0  0  0  0  0  0  0  0
    4.7407    1.6373    0.3377 C   0  0  0  0  0  0  0  0  0  0  0  0
    3.7643    2.2051   -0.6428 C   0  0  0  0  0  0  0  0  0  0  0  0
    2.4058    1.8671   -0.3023 N   0  0  0  0  0  0  0  0  0  0  0  0
    1.3208    2.3182   -1.1424 C   0  0  0  0  0  0  0  0  0  0  0  0
    1.6098    3.0086   -2.1742 O   0  0  0  0  0  0  0  0  0  0  0  0
   -0.0706    2.0044   -0.8374 C   0  0  0  0  0  0  0  0  0  0  0  0
   -0.7688    0.9945   -1.4883 C   0  0  0  0  0  0  0  0  0  0  0  0
   -2.0976    0.7636   -1.1533 C   0  0  0  0  0  0  0  0  0  0  0  0
   -2.6920    1.5565   -0.1679 C   0  0  0  0  0  0  0  0  0  0  0  0
   -2.0178    2.5557    0.4852 C   0  0  0  0  0  0  0  0  0  0  0  0
   -0.6818    2.7704    0.1309 C   0  0  0  0  0  0  0  0  0  0  0  0
    0.2131    4.0735    1.0030 S   0  0  0  0  0  0  0  0  0  0  0  0
   -0.0567    5.6532    0.2045 C   0  0  0  0  0  0  0  0  0  0  0  0
   -1.1322    6.3910    0.6611 C   0  0  0  0  0  0  0  0  0  0  0  0
   -1.4531    7.6265    0.1250 C   0  0  0  0  0  0  0  0  0  0  0  0
   -0.6448    8.0851   -0.8885 C   0  0  0  0  0  0  0  0  0  0  0  0
   -0.9581    9.3101   -1.4240 F   0  0  0  0  0  0  0  0  0  0  0  0
    0.4478    7.3579   -1.3678 C   0  0  0  0  0  0  0  0  0  0  0  0
    0.7354    6.1327   -0.8089 C   0  0  0  0  0  0  0  0  0  0  0  0
   -3.0618   -0.4696   -1.8746 S   0  0  0  0  0  0  0  0  0  0  0  0
   -4.3431    0.1461   -2.3752 O   0  0  0  0  0  0  0  0  0  0  0  0
   -2.3277   -0.9334   -3.1202 O   0  0  0  0  0  0  0  0  0  0  0  0
   -3.4330   -1.8037   -0.9384 N   0  0  0  0  0  0  0  0  0  0  0  0
   -2.4330   -2.6389   -0.4358 C   0  0  0  0  0  0  0  0  0  0  0  0
   -2.9431   -4.0641   -0.4175 C   0  0  0  0  0  0  0  0  0  0  0  0
   -1.9071   -5.0270    0.1071 C   0  0  0  0  0  0  0  0  0  0  0  0
   -4.1538   -4.0999    0.4845 C   0  0  0  0  0  0  0  0  0  0  0  0
   -5.2356   -3.1686   -0.0046 C   0  0  0  0  0  0  0  0  0  0  0  0
   -6.3196   -3.0507    1.0443 C   0  0  0  0  0  0  0  0  0  0  0  0
   -4.7039   -1.7871   -0.2898 C   0  0  0  0  0  0  0  0  0  0  0  0
    3.9037   -0.5217    1.3436 C   0  0  0  0  0  0  0  0  0  0  0  0
    3.8745   -1.8879    1.3878 C   0  0  0  0  0  0  0  0  0  0  0  0
    3.1084   -2.5485    2.3049 O   0  0  0  0  0  0  0  0  0  0  0  0
    2.2884   -1.9592    3.2550 C   0  0  0  0  0  0  0  0  0  0  0  0
    6.4882   -4.4023   -0.3517 H   0  0  0  0  0  0  0  0  0  0  0  0
    5.3172   -5.7592   -0.4299 H   0  0  0  0  0  0  0  0  0  0  0  0
    5.1341   -4.3278   -1.4856 H   0  0  0  0  0  0  0  0  0  0  0  0
    6.0178   -2.5163   -1.1609 H   0  0  0  0  0  0  0  0  0  0  0  0
    6.0309   -0.1172   -1.1924 H   0  0  0  0  0  0  0  0  0  0  0  0
    4.5464    2.0073    1.3832 H   0  0  0  0  0  0  0  0  0  0  0  0
    5.7705    1.9188    0.0314 H   0  0  0  0  0  0  0  0  0  0  0  0
    3.8217    3.3184   -0.6614 H   0  0  0  0  0  0  0  0  0  0  0  0
    3.9808    1.8180   -1.6621 H   0  0  0  0  0  0  0  0  0  0  0  0
    2.1118    1.3096    0.5202 H   0  0  0  0  0  0  0  0  0  0  0  0
   -0.2874    0.3928   -2.2459 H   0  0  0  0  0  0  0  0  0  0  0  0
   -3.7284    1.3932    0.1078 H   0  0  0  0  0  0  0  0  0  0  0  0
   -2.4895    3.1745    1.2588 H   0  0  0  0  0  0  0  0  0  0  0  0
   -1.7717    6.0311    1.4630 H   0  0  0  0  0  0  0  0  0  0  0  0
   -2.3063    8.1776    0.5083 H   0  0  0  0  0  0  0  0  0  0  0  0
    1.0191    7.8015   -2.1623 H   0  0  0  0  0  0  0  0  0  0  0  0
    1.5683    5.5546   -1.1546 H   0  0  0  0  0  0  0  0  0  0  0  0
   -2.2669   -2.3833    0.6500 H   0  0  0  0  0  0  0  0  0  0  0  0
   -1.5084   -2.5360   -1.0350 H   0  0  0  0  0  0  0  0  0  0  0  0
   -3.2355   -4.2913   -1.4688 H   0  0  0  0  0  0  0  0  0  0  0  0
   -0.9221   -4.7025   -0.2836 H   0  0  0  0  0  0  0  0  0  0  0  0
   -2.1164   -6.0287   -0.3212 H   0  0  0  0  0  0  0  0  0  0  0  0
   -1.9047   -5.0033    1.2053 H   0  0  0  0  0  0  0  0  0  0  0  0
   -4.5710   -5.1460    0.4136 H   0  0  0  0  0  0  0  0  0  0  0  0
   -3.8532   -3.9154    1.5139 H   0  0  0  0  0  0  0  0  0  0  0  0
   -5.6915   -3.6370   -0.8993 H   0  0  0  0  0  0  0  0  0  0  0  0
   -6.4856   -3.9641    1.6222 H   0  0  0  0  0  0  0  0  0  0  0  0
   -7.2796   -2.6895    0.5702 H   0  0  0  0  0  0  0  0  0  0  0  0
   -6.0077   -2.2724    1.7822 H   0  0  0  0  0  0  0  0  0  0  0  0
   -5.4283   -1.3385   -1.0243 H   0  0  0  0  0  0  0  0  0  0  0  0
   -4.6692   -1.2334    0.6663 H   0  0  0  0  0  0  0  0  0  0  0  0
    3.3060    0.0079    2.0674 H   0  0  0  0  0  0  0  0  0  0  0  0
    1.5624   -1.2549    2.8147 H   0  0  0  0  0  0  0  0  0  0  0  0
    1.7568   -2.7045    3.8844 H   0  0  0  0  0  0  0  0  0  0  0  0
    2.9517   -1.3535    3.9215 H   0  0  0  0  0  0  0  0  0  0  0  0
  1  2  1  0
  2  3  1  0
  3  4  2  0
  4  5  1  0
  5  6  2  0
  6  7  1  0
  7  8  1  0
  8  9  1  0
  9 10  1  0
 10 11  2  0
 10 12  1  0
 12 13  2  0
 13 14  1  0
 14 15  2  0
 15 16  1  0
 16 17  2  0
 17 18  1  0
 18 19  1  0
 19 20  2  0
 20 21  1  0
 21 22  2  0
 22 23  1  0
 22 24  1  0
 24 25  2  0
 14 26  1  0
 26 27  2  0
 26 28  2  0
 26 29  1  0
 29 30  1  0
 30 31  1  0
 31 32  1  0
 31 33  1  0
 33 34  1  0
 34 35  1  0
 34 36  1  0
  6 37  1  0
 37 38  2  0
 38 39  1  0
 39 40  1  0
 38  3  1  0
 17 12  1  0
 25 19  1  0
 36 29  1  0
  1 41  1  0
  1 42  1  0
  1 43  1  0
  4 44  1  0
  5 45  1  0
  7 46  1  0
  7 47  1  0
  8 48  1  0
  8 49  1  0
  9 50  1  0
 13 51  1  0
 15 52  1  0
 16 53  1  0
 20 54  1  0
 21 55  1  0
 24 56  1  0
 25 57  1  0
 30 58  1  0
 30 59  1  0
 31 60  1  0
 32 61  1  0
 32 62  1  0
 32 63  1  0
 33 64  1  0
 33 65  1  0
 34 66  1  0
 35 67  1  0
 35 68  1  0
 35 69  1  0
 36 70  1  0
 36 71  1  0
 37 72  1  0
 40 73  1  0
 40 74  1  0
 40 75  1  0
M  END
>  <Batch_No>  (277) 
K834-1901

>  <EC50_nM>  (277) 
632

>  <Set>  (277) 
Probe-like

>  <Molecular_Weight>  (277) 
586.7377

>  <ALogP>  (277) 
5.906

$$$$
MMV000699
     RDKit          3D

 73 78  0  0  0  0  0  0  0  0999 V2000
   11.1748   -0.4877   -0.8971 C   0  0  0  0  0  0  0  0  0  0  0  0
    9.7389   -0.2829   -0.5794 C   0  0  0  0  0  0  0  0  0  0  0  0
    8.8464   -0.2226   -1.6244 C   0  0  0  0  0  0  0  0  0  0  0  0
    7.5154   -0.0368   -1.3403 C   0  0  0  0  0  0  0  0  0  0  0  0
    7.0244    0.0926   -0.0566 C   0  0  0  0  0  0  0  0  0  0  0  0
    7.9415    0.0290    0.9675 C   0  0  0  0  0  0  0  0  0  0  0  0
    9.2986   -0.1576    0.7315 C   0  0  0  0  0  0  0  0  0  0  0  0
    5.5782    0.2910    0.1162 C   0  0  0  0  0  0  0  0  0  0  0  0
    5.1462   -0.0023    1.5233 C   0  0  0  0  0  0  0  0  0  0  0  0
    3.6867    0.1014    1.7630 C   0  0  0  0  0  0  0  0  0  0  0  0
    2.8486   -0.2717    0.6581 N   0  0  0  0  0  0  0  0  0  0  0  0
    1.5227   -0.3692    0.6167 N   0  0  0  0  0  0  0  0  0  0  0  0
    1.1514   -0.7462   -0.5990 C   0  0  0  0  0  0  0  0  0  0  0  0
    2.3262   -0.8886   -1.3486 C   0  0  0  0  0  0  0  0  0  0  0  0
    3.3922   -0.5810   -0.5292 C   0  0  0  0  0  0  0  0  0  0  0  0
    4.8003   -0.5603   -0.7734 N   0  0  0  0  0  0  0  0  0  0  0  0
   -0.1704   -0.9989   -1.1536 C   0  0  0  0  0  0  0  0  0  0  0  0
   -0.2190   -1.6555   -2.2431 O   0  0  0  0  0  0  0  0  0  0  0  0
   -1.3890   -0.5889   -0.6039 N   0  0  0  0  0  0  0  0  0  0  0  0
   -1.6200    0.1581    0.5982 C   0  0  0  0  0  0  0  0  0  0  0  0
   -3.0130    0.7884    0.6535 C   0  0  0  0  0  0  0  0  0  0  0  0
   -4.0894   -0.1014    0.4191 N   0  0  0  0  0  0  0  0  0  0  0  0
   -3.5863   -1.3250   -0.2067 C   0  0  0  0  0  0  0  0  0  0  0  0
   -2.6289   -0.9672   -1.3325 C   0  0  0  0  0  0  0  0  0  0  0  0
   -5.2026    0.3357   -0.3477 C   0  0  0  0  0  0  0  0  0  0  0  0
   -6.0831   -0.8844   -0.5071 C   0  0  0  0  0  0  0  0  0  0  0  0
   -6.5268   -1.2376   -1.7813 C   0  0  0  0  0  0  0  0  0  0  0  0
   -7.3285   -2.3560   -1.9848 C   0  0  0  0  0  0  0  0  0  0  0  0
   -7.6678   -3.0996   -0.8831 C   0  0  0  0  0  0  0  0  0  0  0  0
   -7.2449   -2.7737    0.3750 C   0  0  0  0  0  0  0  0  0  0  0  0
   -6.4399   -1.6551    0.5914 C   0  0  0  0  0  0  0  0  0  0  0  0
   -5.9502    1.4933    0.1133 C   0  0  0  0  0  0  0  0  0  0  0  0
   -7.1558    1.3512    0.8101 C   0  0  0  0  0  0  0  0  0  0  0  0
   -7.8922    2.4535    1.2291 C   0  0  0  0  0  0  0  0  0  0  0  0
   -7.4682    3.7368    0.9779 C   0  0  0  0  0  0  0  0  0  0  0  0
   -6.3006    3.8960    0.3034 C   0  0  0  0  0  0  0  0  0  0  0  0
   -5.5560    2.7972   -0.1205 C   0  0  0  0  0  0  0  0  0  0  0  0
    3.2999    1.4776    2.2829 C   0  0  0  0  0  0  0  0  0  0  0  0
    3.6498    2.4346    1.3734 F   0  0  0  0  0  0  0  0  0  0  0  0
    3.8705    1.6444    3.5249 F   0  0  0  0  0  0  0  0  0  0  0  0
    1.9211    1.4684    2.3827 F   0  0  0  0  0  0  0  0  0  0  0  0
   11.4853    0.3841   -1.5250 H   0  0  0  0  0  0  0  0  0  0  0  0
   11.7523   -0.3982    0.0439 H   0  0  0  0  0  0  0  0  0  0  0  0
   11.3496   -1.4499   -1.4239 H   0  0  0  0  0  0  0  0  0  0  0  0
    9.1711   -0.3223   -2.6601 H   0  0  0  0  0  0  0  0  0  0  0  0
    6.8436    0.0051   -2.1951 H   0  0  0  0  0  0  0  0  0  0  0  0
    7.5915    0.1266    1.9660 H   0  0  0  0  0  0  0  0  0  0  0  0
   10.0306   -0.2110    1.5288 H   0  0  0  0  0  0  0  0  0  0  0  0
    5.2995    1.3352   -0.1279 H   0  0  0  0  0  0  0  0  0  0  0  0
    5.6553    0.7391    2.2019 H   0  0  0  0  0  0  0  0  0  0  0  0
    5.5638   -0.9988    1.8390 H   0  0  0  0  0  0  0  0  0  0  0  0
    3.4271   -0.5982    2.6099 H   0  0  0  0  0  0  0  0  0  0  0  0
    2.4151   -1.1808   -2.3762 H   0  0  0  0  0  0  0  0  0  0  0  0
    5.2355   -1.1236   -1.5420 H   0  0  0  0  0  0  0  0  0  0  0  0
   -0.8793    0.9969    0.6186 H   0  0  0  0  0  0  0  0  0  0  0  0
   -1.4507   -0.4099    1.5148 H   0  0  0  0  0  0  0  0  0  0  0  0
   -2.9618    1.6774    0.0196 H   0  0  0  0  0  0  0  0  0  0  0  0
   -3.1038    1.1618    1.7233 H   0  0  0  0  0  0  0  0  0  0  0  0
   -4.3727   -1.9592   -0.5950 H   0  0  0  0  0  0  0  0  0  0  0  0
   -3.0132   -1.8727    0.5597 H   0  0  0  0  0  0  0  0  0  0  0  0
   -2.4783   -1.8589   -1.9473 H   0  0  0  0  0  0  0  0  0  0  0  0
   -2.9523   -0.1342   -1.9474 H   0  0  0  0  0  0  0  0  0  0  0  0
   -4.8235    0.5927   -1.3883 H   0  0  0  0  0  0  0  0  0  0  0  0
   -6.2521   -0.6436   -2.6187 H   0  0  0  0  0  0  0  0  0  0  0  0
   -7.6545   -2.5999   -2.9995 H   0  0  0  0  0  0  0  0  0  0  0  0
   -8.2953   -3.9728   -1.0538 H   0  0  0  0  0  0  0  0  0  0  0  0
   -7.5626   -3.4163    1.1939 H   0  0  0  0  0  0  0  0  0  0  0  0
   -6.1033   -1.3958    1.6036 H   0  0  0  0  0  0  0  0  0  0  0  0
   -7.5785    0.3979    1.0565 H   0  0  0  0  0  0  0  0  0  0  0  0
   -8.8395    2.3214    1.7759 H   0  0  0  0  0  0  0  0  0  0  0  0
   -8.0818    4.5529    1.3282 H   0  0  0  0  0  0  0  0  0  0  0  0
   -5.9640    4.9054    0.1048 H   0  0  0  0  0  0  0  0  0  0  0  0
   -4.6545    3.0506   -0.6607 H   0  0  0  0  0  0  0  0  0  0  0  0
  1  2  1  0
  2  3  2  0
  3  4  1  0
  4  5  2  0
  5  6  1  0
  6  7  2  0
  5  8  1  0
  8  9  1  0
  9 10  1  0
 10 11  1  0
 11 12  1  0
 12 13  2  0
 13 14  1  0
 14 15  2  0
 15 16  1  0
 13 17  1  0
 17 18  2  0
 17 19  1  0
 19 20  1  0
 20 21  1  0
 21 22  1  0
 22 23  1  0
 23 24  1  0
 22 25  1  0
 25 26  1  0
 26 27  2  0
 27 28  1  0
 28 29  2  0
 29 30  1  0
 30 31  2  0
 25 32  1  0
 32 33  2  0
 33 34  1  0
 34 35  2  0
 35 36  1  0
 36 37  2  0
 10 38  1  0
 38 39  1  0
 38 40  1  0
 38 41  1  0
  7  2  1  0
 16  8  1  0
 15 11  1  0
 24 19  1  0
 31 26  1  0
 37 32  1  0
  1 42  1  0
  1 43  1  0
  1 44  1  0
  3 45  1  0
  4 46  1  0
  6 47  1  0
  7 48  1  0
  8 49  1  0
  9 50  1  0
  9 51  1  0
 10 52  1  0
 14 53  1  0
 16 54  1  0
 20 55  1  0
 20 56  1  0
 21 57  1  0
 21 58  1  0
 23 59  1  0
 23 60  1  0
 24 61  1  0
 24 62  1  0
 25 63  1  0
 27 64  1  0
 28 65  1  0
 29 66  1  0
 30 67  1  0
 31 68  1  0
 33 69  1  0
 34 70  1  0
 35 71  1  0
 36 72  1  0
 37 73  1  0
M  END
>  <Batch_No>  (278) 
3209-1341

>  <EC50_nM>  (278) 
454

>  <Set>  (278) 
Probe-like

>  <Molecular_Weight>  (278) 
559.62458

>  <ALogP>  (278) 
6.424

$$$$
MMV009127
     RDKit          3D

 51 55  0  0  0  0  0  0  0  0999 V2000
    3.8041    1.6278    1.4334 C   0  0  0  0  0  0  0  0  0  0  0  0
    4.5031    1.3632    0.1312 C   0  0  0  0  0  0  0  0  0  0  0  0
    4.5017   -0.1274   -0.1738 C   0  0  0  0  0  0  0  0  0  0  0  0
    4.3429   -0.2764   -1.6714 C   0  0  0  0  0  0  0  0  0  0  0  0
    3.0806    0.1325   -2.1554 N   0  0  0  0  0  0  0  0  0  0  0  0
    2.0769   -0.8158   -2.4297 C   0  0  0  0  0  0  0  0  0  0  0  0
    1.4705   -1.5386   -1.3042 C   0  0  0  0  0  0  0  0  0  0  0  0
    2.0058   -2.6081   -0.6388 C   0  0  0  0  0  0  0  0  0  0  0  0
    3.2168   -3.1320   -0.9964 O   0  0  0  0  0  0  0  0  0  0  0  0
    1.3531   -3.2266    0.4363 C   0  0  0  0  0  0  0  0  0  0  0  0
    0.1259   -2.7779    0.8752 C   0  0  0  0  0  0  0  0  0  0  0  0
   -0.4216   -1.7047    0.2138 C   0  0  0  0  0  0  0  0  0  0  0  0
   -1.6495   -1.2571    0.6525 C   0  0  0  0  0  0  0  0  0  0  0  0
   -2.2021   -0.1813   -0.0090 C   0  0  0  0  0  0  0  0  0  0  0  0
   -1.5390    0.4088   -1.0633 C   0  0  0  0  0  0  0  0  0  0  0  0
   -2.0449    1.3991   -1.6743 O   0  0  0  0  0  0  0  0  0  0  0  0
   -0.3741   -0.0725   -1.4239 O   0  0  0  0  0  0  0  0  0  0  0  0
    0.2207   -1.0968   -0.8431 C   0  0  0  0  0  0  0  0  0  0  0  0
   -3.5211    0.3168    0.4464 C   0  0  0  0  0  0  0  0  0  0  0  0
   -4.3333    0.0530    1.2900 N   0  0  0  0  0  0  0  0  0  0  0  0
   -5.4776    0.6609    1.5130 C   0  0  0  0  0  0  0  0  0  0  0  0
   -6.4427    0.3722    2.4916 C   0  0  0  0  0  0  0  0  0  0  0  0
   -7.5651    1.1418    2.5398 C   0  0  0  0  0  0  0  0  0  0  0  0
   -7.8553    2.1950    1.7103 C   0  0  0  0  0  0  0  0  0  0  0  0
   -6.8908    2.4823    0.7335 C   0  0  0  0  0  0  0  0  0  0  0  0
   -5.7603    1.7047    0.6873 C   0  0  0  0  0  0  0  0  0  0  0  0
   -4.3190    1.7600   -0.4028 S   0  0  0  0  0  0  0  0  0  0  0  0
    2.5904    1.3428   -1.5161 C   0  0  0  0  0  0  0  0  0  0  0  0
    3.7829    2.1145   -0.9612 C   0  0  0  0  0  0  0  0  0  0  0  0
    4.5149    1.4380    2.2857 H   0  0  0  0  0  0  0  0  0  0  0  0
    2.9607    0.8993    1.5781 H   0  0  0  0  0  0  0  0  0  0  0  0
    3.3670    2.6303    1.5252 H   0  0  0  0  0  0  0  0  0  0  0  0
    5.5661    1.6738    0.1347 H   0  0  0  0  0  0  0  0  0  0  0  0
    5.4550   -0.6098    0.1064 H   0  0  0  0  0  0  0  0  0  0  0  0
    3.7083   -0.5626    0.4257 H   0  0  0  0  0  0  0  0  0  0  0  0
    5.1092    0.4777   -2.0830 H   0  0  0  0  0  0  0  0  0  0  0  0
    4.6868   -1.2207   -2.0704 H   0  0  0  0  0  0  0  0  0  0  0  0
    2.4695   -1.5524   -3.2113 H   0  0  0  0  0  0  0  0  0  0  0  0
    1.2438   -0.2797   -2.9860 H   0  0  0  0  0  0  0  0  0  0  0  0
    3.5401   -4.0687   -0.8649 H   0  0  0  0  0  0  0  0  0  0  0  0
    1.8135   -4.0727    0.9372 H   0  0  0  0  0  0  0  0  0  0  0  0
   -0.3700   -3.2600    1.7040 H   0  0  0  0  0  0  0  0  0  0  0  0
   -2.2003   -1.6890    1.4709 H   0  0  0  0  0  0  0  0  0  0  0  0
   -6.3214   -0.4313    3.1962 H   0  0  0  0  0  0  0  0  0  0  0  0
   -8.3158    0.9132    3.3052 H   0  0  0  0  0  0  0  0  0  0  0  0
   -8.7497    2.7955    1.7617 H   0  0  0  0  0  0  0  0  0  0  0  0
   -6.9982    3.2717    0.0325 H   0  0  0  0  0  0  0  0  0  0  0  0
    1.9543    1.1184   -0.6457 H   0  0  0  0  0  0  0  0  0  0  0  0
    2.0614    2.0054   -2.2079 H   0  0  0  0  0  0  0  0  0  0  0  0
    3.3474    3.0499   -0.5212 H   0  0  0  0  0  0  0  0  0  0  0  0
    4.4783    2.4264   -1.7643 H   0  0  0  0  0  0  0  0  0  0  0  0
  1  2  1  0
  2  3  1  0
  3  4  1  0
  4  5  1  0
  5  6  1  0
  6  7  1  0
  7  8  2  0
  8  9  1  0
  8 10  1  0
 10 11  2  0
 11 12  1  0
 12 13  1  0
 13 14  2  0
 14 15  1  0
 15 16  2  0
 15 17  1  0
 17 18  1  0
 14 19  1  0
 19 20  2  0
 20 21  1  0
 21 22  2  0
 22 23  1  0
 23 24  2  0
 24 25  1  0
 25 26  2  0
 26 27  1  0
  5 28  1  0
 28 29  1  0
 29  2  1  0
 18  7  1  0
 18 12  2  0
 27 19  1  0
 26 21  1  0
  1 30  1  0
  1 31  1  0
  1 32  1  0
  2 33  1  0
  3 34  1  0
  3 35  1  0
  4 36  1  0
  4 37  1  0
  6 38  1  0
  6 39  1  0
  9 40  1  0
 10 41  1  0
 11 42  1  0
 13 43  1  0
 22 44  1  0
 23 45  1  0
 24 46  1  0
 25 47  1  0
 28 48  1  0
 28 49  1  0
 29 50  1  0
 29 51  1  0
M  END
>  <Batch_No>  (279) 
STK533160

>  <EC50_nM>  (279) 
1132

>  <Set>  (279) 
Probe-like

>  <Molecular_Weight>  (279) 
406.49737

>  <ALogP>  (279) 
4.869

$$$$
MMV665786
     RDKit          3D

 53 56  0  0  0  0  0  0  0  0999 V2000
   -7.2219   -4.3338   -0.2628 Cl  0  0  0  0  0  0  0  0  0  0  0  0
   -6.9028   -2.6209   -0.0214 C   0  0  0  0  0  0  0  0  0  0  0  0
   -7.9701   -1.8009    0.2380 C   0  0  0  0  0  0  0  0  0  0  0  0
   -7.7350   -0.4730    0.4295 C   0  0  0  0  0  0  0  0  0  0  0  0
   -6.4553    0.0246    0.3627 C   0  0  0  0  0  0  0  0  0  0  0  0
   -6.3181    1.3186    0.5600 O   0  0  0  0  0  0  0  0  0  0  0  0
   -5.1422    1.8964    0.5183 C   0  0  0  0  0  0  0  0  0  0  0  0
   -5.0511    3.1442    0.7130 O   0  0  0  0  0  0  0  0  0  0  0  0
   -4.0136    1.1343    0.2618 C   0  0  0  0  0  0  0  0  0  0  0  0
   -4.0599   -0.2350    0.0415 C   0  0  0  0  0  0  0  0  0  0  0  0
   -2.9497   -1.0426   -0.2221 N   0  0  0  0  0  0  0  0  0  0  0  0
   -1.5752   -0.6761   -0.3054 C   0  0  0  0  0  0  0  0  0  0  0  0
   -0.9659   -0.1218    0.9603 C   0  0  0  0  0  0  0  0  0  0  0  0
    0.5499   -0.3924    0.8125 C   0  0  0  0  0  0  0  0  0  0  0  0
    0.9856    0.3858   -0.2808 N   0  0  0  0  0  0  0  0  0  0  0  0
    2.0487    1.2892   -0.1039 C   0  0  0  0  0  0  0  0  0  0  0  0
    3.3610    0.5815    0.1168 C   0  0  0  0  0  0  0  0  0  0  0  0
    4.5042    1.5588    0.3068 C   0  0  0  0  0  0  0  0  0  0  0  0
    5.7909    0.8513    0.5108 C   0  0  0  0  0  0  0  0  0  0  0  0
    6.5379    0.5702   -0.6349 C   0  0  0  0  0  0  0  0  0  0  0  0
    7.7468   -0.0787   -0.5884 C   0  0  0  0  0  0  0  0  0  0  0  0
    8.2157   -0.4565    0.6604 C   0  0  0  0  0  0  0  0  0  0  0  0
    7.4862   -0.1862    1.8179 C   0  0  0  0  0  0  0  0  0  0  0  0
    6.2705    0.4697    1.7400 C   0  0  0  0  0  0  0  0  0  0  0  0
    0.3247    0.2984   -1.5090 C   0  0  0  0  0  0  0  0  0  0  0  0
   -1.1743    0.1794   -1.4495 C   0  0  0  0  0  0  0  0  0  0  0  0
   -5.3486   -0.7803    0.1014 C   0  0  0  0  0  0  0  0  0  0  0  0
   -5.6012   -2.1104   -0.0885 C   0  0  0  0  0  0  0  0  0  0  0  0
   -8.9980   -2.1504    0.3003 H   0  0  0  0  0  0  0  0  0  0  0  0
   -8.5692    0.1836    0.6347 H   0  0  0  0  0  0  0  0  0  0  0  0
   -3.0908    1.6643    0.2404 H   0  0  0  0  0  0  0  0  0  0  0  0
   -3.1539   -2.0760   -0.3862 H   0  0  0  0  0  0  0  0  0  0  0  0
   -0.9955   -1.6589   -0.4643 H   0  0  0  0  0  0  0  0  0  0  0  0
   -1.0345    0.9789    0.9211 H   0  0  0  0  0  0  0  0  0  0  0  0
   -1.3695   -0.5626    1.8863 H   0  0  0  0  0  0  0  0  0  0  0  0
    0.6996   -1.4696    0.7371 H   0  0  0  0  0  0  0  0  0  0  0  0
    0.9966    0.0100    1.7353 H   0  0  0  0  0  0  0  0  0  0  0  0
    1.8560    1.8405    0.8690 H   0  0  0  0  0  0  0  0  0  0  0  0
    2.0953    2.1061   -0.8521 H   0  0  0  0  0  0  0  0  0  0  0  0
    3.2554    0.0160    1.0783 H   0  0  0  0  0  0  0  0  0  0  0  0
    3.5334   -0.1151   -0.7009 H   0  0  0  0  0  0  0  0  0  0  0  0
    4.2797    2.2624    1.1289 H   0  0  0  0  0  0  0  0  0  0  0  0
    4.5647    2.1819   -0.6192 H   0  0  0  0  0  0  0  0  0  0  0  0
    6.1712    0.8661   -1.6239 H   0  0  0  0  0  0  0  0  0  0  0  0
    8.3187   -0.2892   -1.5075 H   0  0  0  0  0  0  0  0  0  0  0  0
    9.1716   -0.9763    0.7645 H   0  0  0  0  0  0  0  0  0  0  0  0
    7.8703   -0.4896    2.7905 H   0  0  0  0  0  0  0  0  0  0  0  0
    5.6924    0.6870    2.6235 H   0  0  0  0  0  0  0  0  0  0  0  0
    0.5681    1.1667   -2.1432 H   0  0  0  0  0  0  0  0  0  0  0  0
    0.7186   -0.6104   -2.0500 H   0  0  0  0  0  0  0  0  0  0  0  0
   -1.5966    1.1739   -1.4430 H   0  0  0  0  0  0  0  0  0  0  0  0
   -1.4809   -0.3094   -2.4188 H   0  0  0  0  0  0  0  0  0  0  0  0
   -4.8403   -2.8240   -0.2935 H   0  0  0  0  0  0  0  0  0  0  0  0
  1  2  1  0
  2  3  2  0
  3  4  1  0
  4  5  2  0
  5  6  1  0
  6  7  1  0
  7  8  2  0
  7  9  1  0
  9 10  2  0
 10 11  1  0
 11 12  1  0
 12 13  1  0
 13 14  1  0
 14 15  1  0
 15 16  1  0
 16 17  1  0
 17 18  1  0
 18 19  1  0
 19 20  2  0
 20 21  1  0
 21 22  2  0
 22 23  1  0
 23 24  2  0
 15 25  1  0
 25 26  1  0
 10 27  1  0
 27 28  2  0
 28  2  1  0
 27  5  1  0
 26 12  1  0
 24 19  1  0
  3 29  1  0
  4 30  1  0
  9 31  1  0
 11 32  1  0
 12 33  1  0
 13 34  1  0
 13 35  1  0
 14 36  1  0
 14 37  1  0
 16 38  1  0
 16 39  1  0
 17 40  1  0
 17 41  1  0
 18 42  1  0
 18 43  1  0
 20 44  1  0
 21 45  1  0
 22 46  1  0
 23 47  1  0
 24 48  1  0
 25 49  1  0
 25 50  1  0
 26 51  1  0
 26 52  1  0
 28 53  1  0
M  END
>  <Batch_No>  (280) 
AI-204/31681056

>  <EC50_nM>  (280) 
846

>  <Set>  (280) 
Probe-like

>  <Molecular_Weight>  (280) 
396.90979

>  <ALogP>  (280) 
4.271

$$$$
MMV006250
     RDKit          3D

 46 48  0  0  0  0  0  0  0  0999 V2000
   -0.6503   -4.2450    0.1086 C   0  0  0  0  0  0  0  0  0  0  0  0
   -1.4340   -3.5778   -1.0025 C   0  0  0  0  0  0  0  0  0  0  0  0
   -1.4692   -2.1936   -0.7147 O   0  0  0  0  0  0  0  0  0  0  0  0
   -2.0933   -1.2622   -1.4997 C   0  0  0  0  0  0  0  0  0  0  0  0
   -2.6736   -1.6913   -2.5528 O   0  0  0  0  0  0  0  0  0  0  0  0
   -2.0980    0.1559   -1.1535 C   0  0  0  0  0  0  0  0  0  0  0  0
   -2.7477    1.0391   -1.9924 C   0  0  0  0  0  0  0  0  0  0  0  0
   -2.7730    2.3640   -1.7030 N   0  0  0  0  0  0  0  0  0  0  0  0
   -2.1577    2.8298   -0.5835 C   0  0  0  0  0  0  0  0  0  0  0  0
   -2.1915    4.1915   -0.2990 C   0  0  0  0  0  0  0  0  0  0  0  0
   -2.8949    5.1558   -1.2051 C   0  0  0  0  0  0  0  0  0  0  0  0
   -1.5691    4.6794    0.8375 C   0  0  0  0  0  0  0  0  0  0  0  0
   -0.8974    3.8253    1.7195 C   0  0  0  0  0  0  0  0  0  0  0  0
   -0.8796    2.4652    1.4092 C   0  0  0  0  0  0  0  0  0  0  0  0
   -1.4989    1.9763    0.2775 C   0  0  0  0  0  0  0  0  0  0  0  0
   -1.4686    0.6272   -0.0097 C   0  0  0  0  0  0  0  0  0  0  0  0
   -0.8050   -0.2860    0.8442 N   0  0  0  0  0  0  0  0  0  0  0  0
    0.5733   -0.6206    0.6766 C   0  0  0  0  0  0  0  0  0  0  0  0
    1.1756   -1.5113    1.5284 C   0  0  0  0  0  0  0  0  0  0  0  0
    2.5208   -1.8302    1.3554 C   0  0  0  0  0  0  0  0  0  0  0  0
    3.2655   -1.2665    0.3399 C   0  0  0  0  0  0  0  0  0  0  0  0
    2.6686   -0.3728   -0.5179 C   0  0  0  0  0  0  0  0  0  0  0  0
    1.3319   -0.0743   -0.3231 C   0  0  0  0  0  0  0  0  0  0  0  0
    4.6733   -1.5664    0.1168 C   0  0  0  0  0  0  0  0  0  0  0  0
    5.3485   -1.0432   -0.8191 O   0  0  0  0  0  0  0  0  0  0  0  0
    5.3990   -2.5213    0.9962 C   0  0  0  0  0  0  0  0  0  0  0  0
    0.4293   -4.1761   -0.1255 H   0  0  0  0  0  0  0  0  0  0  0  0
   -0.8633   -3.6790    1.0397 H   0  0  0  0  0  0  0  0  0  0  0  0
   -0.9777   -5.3108    0.2313 H   0  0  0  0  0  0  0  0  0  0  0  0
   -2.4725   -4.0140   -0.9358 H   0  0  0  0  0  0  0  0  0  0  0  0
   -0.9546   -3.8277   -1.9613 H   0  0  0  0  0  0  0  0  0  0  0  0
   -3.2352    0.6393   -2.8869 H   0  0  0  0  0  0  0  0  0  0  0  0
   -3.6123    4.6218   -1.8677 H   0  0  0  0  0  0  0  0  0  0  0  0
   -3.4492    5.8969   -0.6185 H   0  0  0  0  0  0  0  0  0  0  0  0
   -2.0953    5.6598   -1.7899 H   0  0  0  0  0  0  0  0  0  0  0  0
   -1.5858    5.7396    1.0749 H   0  0  0  0  0  0  0  0  0  0  0  0
   -0.4078    4.1943    2.6098 H   0  0  0  0  0  0  0  0  0  0  0  0
   -0.3799    1.7411    2.0432 H   0  0  0  0  0  0  0  0  0  0  0  0
   -1.3503   -0.7156    1.6086 H   0  0  0  0  0  0  0  0  0  0  0  0
    0.6012   -1.9598    2.3287 H   0  0  0  0  0  0  0  0  0  0  0  0
    2.9853   -2.5324    2.0313 H   0  0  0  0  0  0  0  0  0  0  0  0
    3.2286    0.0809   -1.3187 H   0  0  0  0  0  0  0  0  0  0  0  0
    0.8879    0.6365   -1.0184 H   0  0  0  0  0  0  0  0  0  0  0  0
    5.0157   -2.3358    2.0404 H   0  0  0  0  0  0  0  0  0  0  0  0
    6.4942   -2.3664    0.9574 H   0  0  0  0  0  0  0  0  0  0  0  0
    5.0870   -3.5396    0.7238 H   0  0  0  0  0  0  0  0  0  0  0  0
  1  2  1  0
  2  3  1  0
  3  4  1  0
  4  5  2  0
  4  6  1  0
  6  7  2  0
  7  8  1  0
  8  9  2  0
  9 10  1  0
 10 11  1  0
 10 12  2  0
 12 13  1  0
 13 14  2  0
 14 15  1  0
 15 16  2  0
 16 17  1  0
 17 18  1  0
 18 19  2  0
 19 20  1  0
 20 21  2  0
 21 22  1  0
 22 23  2  0
 21 24  1  0
 24 25  2  0
 24 26  1  0
 16  6  1  0
 15  9  1  0
 23 18  1  0
  1 27  1  0
  1 28  1  0
  1 29  1  0
  2 30  1  0
  2 31  1  0
  7 32  1  0
 11 33  1  0
 11 34  1  0
 11 35  1  0
 12 36  1  0
 13 37  1  0
 14 38  1  0
 17 39  1  0
 19 40  1  0
 20 41  1  0
 22 42  1  0
 23 43  1  0
 26 44  1  0
 26 45  1  0
 26 46  1  0
M  END
>  <Batch_No>  (281) 
5174-4531

>  <EC50_nM>  (281) 
314

>  <Set>  (281) 
Probe-like

>  <Molecular_Weight>  (281) 
348.39509

>  <ALogP>  (281) 
3.996

$$$$
MMV666079
     RDKit          3D

 39 42  0  0  0  0  0  0  0  0999 V2000
    6.3372    0.7532   -0.1861 C   0  0  0  0  0  0  0  0  0  0  0  0
    4.9368    0.4851    0.2327 C   0  0  0  0  0  0  0  0  0  0  0  0
    4.6853    0.0993    1.5463 C   0  0  0  0  0  0  0  0  0  0  0  0
    3.3681   -0.1452    1.9123 C   0  0  0  0  0  0  0  0  0  0  0  0
    2.3251   -0.0151    1.0149 C   0  0  0  0  0  0  0  0  0  0  0  0
    1.0163   -0.2731    1.4335 C   0  0  0  0  0  0  0  0  0  0  0  0
   -0.0385   -0.1426    0.5303 C   0  0  0  0  0  0  0  0  0  0  0  0
   -1.3527   -0.4000    0.9449 C   0  0  0  0  0  0  0  0  0  0  0  0
   -1.5202   -0.7847    2.2817 N   0  0  0  0  0  0  0  0  0  0  0  0
   -2.3508   -0.2571    0.0189 C   0  0  0  0  0  0  0  0  0  0  0  0
   -3.6541   -0.5083    0.4165 C   0  0  0  0  0  0  0  0  0  0  0  0
   -4.0340   -0.9185    1.7772 C   0  0  0  0  0  0  0  0  0  0  0  0
   -4.6163   -0.3398   -0.5881 C   0  0  0  0  0  0  0  0  0  0  0  0
   -4.2853    0.0451   -1.8667 C   0  0  0  0  0  0  0  0  0  0  0  0
   -2.9820    0.2889   -2.2368 C   0  0  0  0  0  0  0  0  0  0  0  0
   -2.6328    0.6987   -3.5992 C   0  0  0  0  0  0  0  0  0  0  0  0
   -2.0174    0.1289   -1.2625 C   0  0  0  0  0  0  0  0  0  0  0  0
   -0.7420    0.3737   -1.6465 N   0  0  0  0  0  0  0  0  0  0  0  0
    0.2589    0.2415   -0.7585 C   0  0  0  0  0  0  0  0  0  0  0  0
    1.5358    0.4856   -1.1392 N   0  0  0  0  0  0  0  0  0  0  0  0
    2.5690    0.3668   -0.2875 C   0  0  0  0  0  0  0  0  0  0  0  0
    3.8794    0.6083   -0.6452 C   0  0  0  0  0  0  0  0  0  0  0  0
    6.4148    0.6629   -1.3024 H   0  0  0  0  0  0  0  0  0  0  0  0
    7.0208    0.0447    0.3016 H   0  0  0  0  0  0  0  0  0  0  0  0
    6.5786    1.7895    0.0840 H   0  0  0  0  0  0  0  0  0  0  0  0
    5.4792   -0.0127    2.2770 H   0  0  0  0  0  0  0  0  0  0  0  0
    3.2067   -0.4438    2.9423 H   0  0  0  0  0  0  0  0  0  0  0  0
    0.8084   -0.5724    2.4475 H   0  0  0  0  0  0  0  0  0  0  0  0
   -1.2908   -1.7990    2.5137 H   0  0  0  0  0  0  0  0  0  0  0  0
   -1.8322   -0.1809    3.0680 H   0  0  0  0  0  0  0  0  0  0  0  0
   -4.0863   -0.0901    2.5172 H   0  0  0  0  0  0  0  0  0  0  0  0
   -5.1366   -1.2037    1.6955 H   0  0  0  0  0  0  0  0  0  0  0  0
   -3.5929   -1.8547    2.1387 H   0  0  0  0  0  0  0  0  0  0  0  0
   -5.6484   -0.5122   -0.3706 H   0  0  0  0  0  0  0  0  0  0  0  0
   -5.0627    0.1598   -2.5996 H   0  0  0  0  0  0  0  0  0  0  0  0
   -1.8137    0.0602   -4.0391 H   0  0  0  0  0  0  0  0  0  0  0  0
   -2.2948    1.7480   -3.6376 H   0  0  0  0  0  0  0  0  0  0  0  0
   -3.5087    0.5044   -4.2576 H   0  0  0  0  0  0  0  0  0  0  0  0
    4.0731    0.9095   -1.6715 H   0  0  0  0  0  0  0  0  0  0  0  0
  1  2  1  0
  2  3  2  0
  3  4  1  0
  4  5  2  0
  5  6  1  0
  6  7  2  0
  7  8  1  0
  8  9  1  0
  8 10  2  0
 10 11  1  0
 11 12  1  0
 11 13  2  0
 13 14  1  0
 14 15  2  0
 15 16  1  0
 15 17  1  0
 17 18  2  0
 18 19  1  0
 19 20  2  0
 20 21  1  0
 21 22  2  0
 22  2  1  0
 21  5  1  0
 19  7  1  0
 17 10  1  0
  1 23  1  0
  1 24  1  0
  1 25  1  0
  3 26  1  0
  4 27  1  0
  6 28  1  0
  9 29  1  0
  9 30  1  0
 12 31  1  0
 12 32  1  0
 12 33  1  0
 13 34  1  0
 14 35  1  0
 16 36  1  0
 16 37  1  0
 16 38  1  0
 22 39  1  0
M  END
>  <Batch_No>  (282) 
ASN 02538344

>  <EC50_nM>  (282) 
1310

>  <Set>  (282) 
Probe-like

>  <Molecular_Weight>  (282) 
287.35837

>  <ALogP>  (282) 
4.447

$$$$
MMV665969
     RDKit          3D

 52 55  0  0  0  0  0  0  0  0999 V2000
   -6.1219   -1.7079   -2.5002 C   0  0  0  0  0  0  0  0  0  0  0  0
   -4.9209   -1.3292   -1.9222 O   0  0  0  0  0  0  0  0  0  0  0  0
   -4.5151   -1.5092   -0.6143 C   0  0  0  0  0  0  0  0  0  0  0  0
   -5.2735   -2.1186    0.3584 C   0  0  0  0  0  0  0  0  0  0  0  0
   -4.8148   -2.2708    1.6518 C   0  0  0  0  0  0  0  0  0  0  0  0
   -3.5444   -1.7975    2.0003 C   0  0  0  0  0  0  0  0  0  0  0  0
   -2.7737   -1.1799    1.0175 C   0  0  0  0  0  0  0  0  0  0  0  0
   -3.2672   -1.0507   -0.2490 C   0  0  0  0  0  0  0  0  0  0  0  0
   -1.4588   -0.7059    1.4371 C   0  0  0  0  0  0  0  0  0  0  0  0
   -1.1133   -0.8824    2.6342 O   0  0  0  0  0  0  0  0  0  0  0  0
   -0.5492   -0.0544    0.5594 N   0  0  0  0  0  0  0  0  0  0  0  0
    0.7334    0.3853    1.0505 C   0  0  0  0  0  0  0  0  0  0  0  0
    0.8714    1.8748    0.9455 C   0  0  0  0  0  0  0  0  0  0  0  0
    1.3815    2.6375    1.9806 C   0  0  0  0  0  0  0  0  0  0  0  0
    1.4808    4.0078    1.8174 C   0  0  0  0  0  0  0  0  0  0  0  0
    1.0789    4.6308    0.6368 C   0  0  0  0  0  0  0  0  0  0  0  0
    1.1825    6.1077    0.4536 C   0  0  0  0  0  0  0  0  0  0  0  0
    0.5709    3.8688   -0.3934 C   0  0  0  0  0  0  0  0  0  0  0  0
    0.4737    2.4902   -0.2227 C   0  0  0  0  0  0  0  0  0  0  0  0
    1.8824   -0.3192    0.4244 C   0  0  0  0  0  0  0  0  0  0  0  0
    3.1438    0.0849    0.8061 C   0  0  0  0  0  0  0  0  0  0  0  0
    4.2568   -0.5415    0.2477 C   0  0  0  0  0  0  0  0  0  0  0  0
    5.8927   -0.0792    0.6861 Cl  0  0  0  0  0  0  0  0  0  0  0  0
    4.1151   -1.5524   -0.6744 C   0  0  0  0  0  0  0  0  0  0  0  0
    5.1776   -2.2086   -1.2600 C   0  0  0  0  0  0  0  0  0  0  0  0
    4.9921   -3.2314   -2.1930 C   0  0  0  0  0  0  0  0  0  0  0  0
    3.6866   -3.5777   -2.5224 C   0  0  0  0  0  0  0  0  0  0  0  0
    2.6657   -2.9394   -1.9525 N   0  0  0  0  0  0  0  0  0  0  0  0
    2.8489   -1.9485   -1.0487 C   0  0  0  0  0  0  0  0  0  0  0  0
    1.7472   -1.3306   -0.4979 C   0  0  0  0  0  0  0  0  0  0  0  0
    0.5065   -1.7471   -0.8900 O   0  0  0  0  0  0  0  0  0  0  0  0
   -6.6373   -0.7578   -2.8147 H   0  0  0  0  0  0  0  0  0  0  0  0
   -6.0073   -2.2781   -3.4472 H   0  0  0  0  0  0  0  0  0  0  0  0
   -6.7910   -2.2218   -1.8107 H   0  0  0  0  0  0  0  0  0  0  0  0
   -6.2564   -2.4937    0.1210 H   0  0  0  0  0  0  0  0  0  0  0  0
   -5.4103   -2.7519    2.4248 H   0  0  0  0  0  0  0  0  0  0  0  0
   -3.2267   -1.9334    3.0058 H   0  0  0  0  0  0  0  0  0  0  0  0
   -2.6554   -0.5700   -0.9945 H   0  0  0  0  0  0  0  0  0  0  0  0
   -0.8184    0.1016   -0.4279 H   0  0  0  0  0  0  0  0  0  0  0  0
    0.8048    0.1470    2.1508 H   0  0  0  0  0  0  0  0  0  0  0  0
    1.6976    2.1620    2.9049 H   0  0  0  0  0  0  0  0  0  0  0  0
    1.8845    4.6028    2.6392 H   0  0  0  0  0  0  0  0  0  0  0  0
    1.5744    6.5813    1.3624 H   0  0  0  0  0  0  0  0  0  0  0  0
    0.1896    6.5622    0.2633 H   0  0  0  0  0  0  0  0  0  0  0  0
    1.8434    6.3642   -0.4058 H   0  0  0  0  0  0  0  0  0  0  0  0
    0.2399    4.3112   -1.3444 H   0  0  0  0  0  0  0  0  0  0  0  0
    0.0631    1.9288   -1.0713 H   0  0  0  0  0  0  0  0  0  0  0  0
    3.3354    0.8703    1.5233 H   0  0  0  0  0  0  0  0  0  0  0  0
    6.1706   -1.9184   -0.9851 H   0  0  0  0  0  0  0  0  0  0  0  0
    5.8368   -3.7457   -2.6518 H   0  0  0  0  0  0  0  0  0  0  0  0
    3.4865   -4.3607   -3.2372 H   0  0  0  0  0  0  0  0  0  0  0  0
    0.3401   -2.6057   -1.3759 H   0  0  0  0  0  0  0  0  0  0  0  0
  1  2  1  0
  2  3  1  0
  3  4  2  0
  4  5  1  0
  5  6  2  0
  6  7  1  0
  7  8  2  0
  7  9  1  0
  9 10  2  0
  9 11  1  0
 11 12  1  0
 12 13  1  0
 13 14  2  0
 14 15  1  0
 15 16  2  0
 16 17  1  0
 16 18  1  0
 18 19  2  0
 12 20  1  0
 20 21  2  0
 21 22  1  0
 22 23  1  0
 22 24  2  0
 24 25  1  0
 25 26  2  0
 26 27  1  0
 27 28  2  0
 28 29  1  0
 29 30  2  0
 30 31  1  0
  8  3  1  0
 19 13  1  0
 30 20  1  0
 29 24  1  0
  1 32  1  0
  1 33  1  0
  1 34  1  0
  4 35  1  0
  5 36  1  0
  6 37  1  0
  8 38  1  0
 11 39  1  0
 12 40  1  0
 14 41  1  0
 15 42  1  0
 17 43  1  0
 17 44  1  0
 17 45  1  0
 18 46  1  0
 19 47  1  0
 21 48  1  0
 25 49  1  0
 26 50  1  0
 27 51  1  0
 31 52  1  0
M  END
>  <Batch_No>  (283) 
6403066

>  <EC50_nM>  (283) 
393

>  <Set>  (283) 
Probe-like

>  <Molecular_Weight>  (283) 
432.89884

>  <ALogP>  (283) 
5.312

$$$$
MMV000304
     RDKit          3D

 42 45  0  0  0  0  0  0  0  0999 V2000
    5.9748   -0.5236   -0.0502 C   0  0  0  0  0  0  0  0  0  0  0  0
    5.5866    0.8213   -0.6129 C   0  0  0  0  0  0  0  0  0  0  0  0
    4.2899    0.8262   -1.1800 O   0  0  0  0  0  0  0  0  0  0  0  0
    3.1260    0.5421   -0.4945 C   0  0  0  0  0  0  0  0  0  0  0  0
    1.9244    0.5905   -1.2111 C   0  0  0  0  0  0  0  0  0  0  0  0
    0.7300    0.3120   -0.5610 C   0  0  0  0  0  0  0  0  0  0  0  0
    0.6882   -0.0140    0.7806 C   0  0  0  0  0  0  0  0  0  0  0  0
   -0.5668   -0.2896    1.3921 N   0  0  0  0  0  0  0  0  0  0  0  0
   -1.7316   -0.2151    0.5798 C   0  0  0  0  0  0  0  0  0  0  0  0
   -2.4429    0.9730    0.4417 C   0  0  0  0  0  0  0  0  0  0  0  0
   -1.9756    2.0785    1.1233 C   0  0  0  0  0  0  0  0  0  0  0  0
   -2.6861    3.2654    0.9854 C   0  0  0  0  0  0  0  0  0  0  0  0
   -3.8166    3.3325    0.1954 C   0  0  0  0  0  0  0  0  0  0  0  0
   -4.2791    2.2375   -0.4796 C   0  0  0  0  0  0  0  0  0  0  0  0
   -3.5852    1.0457   -0.3551 C   0  0  0  0  0  0  0  0  0  0  0  0
   -4.0242   -0.0449   -1.0118 N   0  0  0  0  0  0  0  0  0  0  0  0
   -3.3426   -1.2216   -0.8915 C   0  0  0  0  0  0  0  0  0  0  0  0
   -3.7625   -2.3561   -1.5482 C   0  0  0  0  0  0  0  0  0  0  0  0
   -3.1142   -3.5595   -1.4602 C   0  0  0  0  0  0  0  0  0  0  0  0
   -1.9916   -3.6442   -0.6812 C   0  0  0  0  0  0  0  0  0  0  0  0
   -1.5323   -2.5267   -0.0015 C   0  0  0  0  0  0  0  0  0  0  0  0
   -2.2101   -1.3129   -0.1075 C   0  0  0  0  0  0  0  0  0  0  0  0
    1.8745   -0.0612    1.4856 C   0  0  0  0  0  0  0  0  0  0  0  0
    3.0745    0.2161    0.8435 C   0  0  0  0  0  0  0  0  0  0  0  0
    6.2514   -0.5008    1.0233 H   0  0  0  0  0  0  0  0  0  0  0  0
    5.1291   -1.2096   -0.1692 H   0  0  0  0  0  0  0  0  0  0  0  0
    6.8458   -0.9205   -0.6160 H   0  0  0  0  0  0  0  0  0  0  0  0
    5.4935    1.4933    0.2918 H   0  0  0  0  0  0  0  0  0  0  0  0
    6.3383    1.2518   -1.2730 H   0  0  0  0  0  0  0  0  0  0  0  0
    1.9394    0.8437   -2.2607 H   0  0  0  0  0  0  0  0  0  0  0  0
   -0.1889    0.3612   -1.1601 H   0  0  0  0  0  0  0  0  0  0  0  0
   -0.5969   -0.5362    2.4094 H   0  0  0  0  0  0  0  0  0  0  0  0
   -1.0836    2.0138    1.7430 H   0  0  0  0  0  0  0  0  0  0  0  0
   -2.3536    4.1489    1.5009 H   0  0  0  0  0  0  0  0  0  0  0  0
   -4.3438    4.2606    0.1079 H   0  0  0  0  0  0  0  0  0  0  0  0
   -5.1589    2.2507   -1.1067 H   0  0  0  0  0  0  0  0  0  0  0  0
   -4.6604   -2.2734   -2.1666 H   0  0  0  0  0  0  0  0  0  0  0  0
   -3.5263   -4.3876   -2.0153 H   0  0  0  0  0  0  0  0  0  0  0  0
   -1.4566   -4.5835   -0.5917 H   0  0  0  0  0  0  0  0  0  0  0  0
   -0.6607   -2.5453    0.6180 H   0  0  0  0  0  0  0  0  0  0  0  0
    1.8362   -0.3124    2.5169 H   0  0  0  0  0  0  0  0  0  0  0  0
    3.9885    0.1738    1.4177 H   0  0  0  0  0  0  0  0  0  0  0  0
  1  2  1  0
  2  3  1  0
  3  4  1  0
  4  5  2  0
  5  6  1  0
  6  7  2  0
  7  8  1  0
  8  9  1  0
  9 10  1  0
 10 11  2  0
 11 12  1  0
 12 13  2  0
 13 14  1  0
 14 15  2  0
 15 16  1  0
 16 17  2  0
 17 18  1  0
 18 19  2  0
 19 20  1  0
 20 21  2  0
 21 22  1  0
  7 23  1  0
 23 24  2  0
 24  4  1  0
 22  9  2  0
 15 10  1  0
 22 17  1  0
  1 25  1  0
  1 26  1  0
  1 27  1  0
  2 28  1  0
  2 29  1  0
  5 30  1  0
  6 31  1  0
  8 32  1  0
 11 33  1  0
 12 34  1  0
 13 35  1  0
 14 36  1  0
 18 37  1  0
 19 38  1  0
 20 39  1  0
 21 40  1  0
 23 41  1  0
 24 42  1  0
M  END
>  <Batch_No>  (284) 
4300-0950

>  <EC50_nM>  (284) 
1060

>  <Set>  (284) 
Probe-like

>  <Molecular_Weight>  (284) 
314.38042

>  <ALogP>  (284) 
5.235

$$$$
MMV000443
     RDKit          3D

 39 41  0  0  0  0  0  0  0  0999 V2000
   -6.6399   -0.2684   -1.0160 C   0  0  0  0  0  0  0  0  0  0  0  0
   -5.1744   -0.4647   -0.6844 C   0  0  0  0  0  0  0  0  0  0  0  0
   -4.6258    0.7849   -0.3655 O   0  0  0  0  0  0  0  0  0  0  0  0
   -3.2977    0.9294   -0.0174 C   0  0  0  0  0  0  0  0  0  0  0  0
   -2.8422    2.2165    0.2841 C   0  0  0  0  0  0  0  0  0  0  0  0
   -1.5047    2.4182    0.6429 C   0  0  0  0  0  0  0  0  0  0  0  0
   -0.6415    1.3458    0.6975 C   0  0  0  0  0  0  0  0  0  0  0  0
    0.6844    1.5738    1.0574 O   0  0  0  0  0  0  0  0  0  0  0  0
    1.4115    0.4171    1.4574 C   0  0  0  0  0  0  0  0  0  0  0  0
    1.1856   -0.6943    0.5892 N   0  0  0  0  0  0  0  0  0  0  0  0
    1.9032   -0.6430   -0.6658 C   0  0  0  0  0  0  0  0  0  0  0  0
    3.3719   -0.5991   -0.4564 C   0  0  0  0  0  0  0  0  0  0  0  0
    4.0088    0.6400   -0.3335 C   0  0  0  0  0  0  0  0  0  0  0  0
    5.3624    0.7526   -0.1386 C   0  0  0  0  0  0  0  0  0  0  0  0
    6.1371   -0.3775   -0.0585 C   0  0  0  0  0  0  0  0  0  0  0  0
    7.8559   -0.1742    0.1905 Cl  0  0  0  0  0  0  0  0  0  0  0  0
    5.5301   -1.5964   -0.1767 C   0  0  0  0  0  0  0  0  0  0  0  0
    4.1556   -1.7362   -0.3753 C   0  0  0  0  0  0  0  0  0  0  0  0
   -0.1722   -1.0997    0.4528 C   0  0  0  0  0  0  0  0  0  0  0  0
   -1.1140    0.0696    0.3934 C   0  0  0  0  0  0  0  0  0  0  0  0
   -2.4264   -0.1506    0.0380 C   0  0  0  0  0  0  0  0  0  0  0  0
   -7.1452    0.2761   -0.1910 H   0  0  0  0  0  0  0  0  0  0  0  0
   -7.1803   -1.2085   -1.2074 H   0  0  0  0  0  0  0  0  0  0  0  0
   -6.6634    0.4179   -1.8972 H   0  0  0  0  0  0  0  0  0  0  0  0
   -5.0223   -1.1851    0.1463 H   0  0  0  0  0  0  0  0  0  0  0  0
   -4.6980   -0.9134   -1.5807 H   0  0  0  0  0  0  0  0  0  0  0  0
   -3.4959    3.0596    0.2473 H   0  0  0  0  0  0  0  0  0  0  0  0
   -1.1295    3.4098    0.8812 H   0  0  0  0  0  0  0  0  0  0  0  0
    1.0137    0.0994    2.4663 H   0  0  0  0  0  0  0  0  0  0  0  0
    2.4758    0.5822    1.5967 H   0  0  0  0  0  0  0  0  0  0  0  0
    1.5650    0.1761   -1.3214 H   0  0  0  0  0  0  0  0  0  0  0  0
    1.6651   -1.5851   -1.2016 H   0  0  0  0  0  0  0  0  0  0  0  0
    3.4173    1.5357   -0.3938 H   0  0  0  0  0  0  0  0  0  0  0  0
    5.7972    1.7466   -0.0507 H   0  0  0  0  0  0  0  0  0  0  0  0
    6.1626   -2.4937   -0.1107 H   0  0  0  0  0  0  0  0  0  0  0  0
    3.6772   -2.6875   -0.4683 H   0  0  0  0  0  0  0  0  0  0  0  0
   -0.4479   -1.8261    1.2400 H   0  0  0  0  0  0  0  0  0  0  0  0
   -0.3335   -1.6134   -0.5327 H   0  0  0  0  0  0  0  0  0  0  0  0
   -2.8256   -1.1340   -0.2048 H   0  0  0  0  0  0  0  0  0  0  0  0
  1  2  1  0
  2  3  1  0
  3  4  1  0
  4  5  2  0
  5  6  1  0
  6  7  2  0
  7  8  1  0
  8  9  1  0
  9 10  1  0
 10 11  1  0
 11 12  1  0
 12 13  2  0
 13 14  1  0
 14 15  2  0
 15 16  1  0
 15 17  1  0
 17 18  2  0
 10 19  1  0
 19 20  1  0
 20 21  2  0
 21  4  1  0
 20  7  1  0
 18 12  1  0
  1 22  1  0
  1 23  1  0
  1 24  1  0
  2 25  1  0
  2 26  1  0
  5 27  1  0
  6 28  1  0
  9 29  1  0
  9 30  1  0
 11 31  1  0
 11 32  1  0
 13 33  1  0
 14 34  1  0
 17 35  1  0
 18 36  1  0
 19 37  1  0
 19 38  1  0
 21 39  1  0
M  END
>  <Batch_No>  (285) 
6718-0097

>  <EC50_nM>  (285) 
439

>  <Set>  (285) 
Probe-like

>  <Molecular_Weight>  (285) 
303.78332

>  <ALogP>  (285) 
4.268

$$$$
MMV666604
     RDKit          3D

 60 64  0  0  0  0  0  0  0  0999 V2000
   -4.4216    3.7153    0.7645 C   0  0  0  0  0  0  0  0  0  0  0  0
   -3.8399    4.2320   -0.5278 C   0  0  0  0  0  0  0  0  0  0  0  0
   -2.4914    3.8382   -0.6786 O   0  0  0  0  0  0  0  0  0  0  0  0
   -2.2126    2.5087   -0.7070 C   0  0  0  0  0  0  0  0  0  0  0  0
   -3.1819    1.7035   -0.5960 O   0  0  0  0  0  0  0  0  0  0  0  0
   -0.8218    2.0548   -0.8626 C   0  0  0  0  0  0  0  0  0  0  0  0
    0.0925    2.9867   -0.9675 C   0  0  0  0  0  0  0  0  0  0  0  0
   -0.1044    4.4316   -0.9485 C   0  0  0  0  0  0  0  0  0  0  0  0
    1.4447    2.4885   -1.1164 N   0  0  0  0  0  0  0  0  0  0  0  0
    1.6788    1.2741   -1.1384 C   0  0  0  0  0  0  0  0  0  0  0  0
    3.3360    0.4916   -1.3199 S   0  0  0  0  0  0  0  0  0  0  0  0
    2.5844   -1.2233   -1.2314 C   0  0  0  0  0  0  0  0  0  0  0  0
    3.3277   -2.3015   -1.3106 C   0  0  0  0  0  0  0  0  0  0  0  0
    4.7640   -2.1597   -1.4703 C   0  0  0  0  0  0  0  0  0  0  0  0
    5.5436   -1.3553   -0.6558 C   0  0  0  0  0  0  0  0  0  0  0  0
    6.9078   -1.2547   -0.8496 C   0  0  0  0  0  0  0  0  0  0  0  0
    7.5091   -1.9754   -1.8826 C   0  0  0  0  0  0  0  0  0  0  0  0
    6.7315   -2.7776   -2.6947 C   0  0  0  0  0  0  0  0  0  0  0  0
    5.3670   -2.8682   -2.4885 C   0  0  0  0  0  0  0  0  0  0  0  0
    4.6254   -3.6960   -3.3407 O   0  0  0  0  0  0  0  0  0  0  0  0
    1.2581   -0.9817   -1.0849 C   0  0  0  0  0  0  0  0  0  0  0  0
    0.4608   -2.0116   -0.9933 O   0  0  0  0  0  0  0  0  0  0  0  0
    0.8067    0.2406   -1.0386 N   0  0  0  0  0  0  0  0  0  0  0  0
   -0.6314    0.6008   -0.8823 C   0  0  0  0  0  0  0  0  0  0  0  0
   -1.1732   -0.0115    0.3396 C   0  0  0  0  0  0  0  0  0  0  0  0
   -0.6639    0.4274    1.5502 C   0  0  0  0  0  0  0  0  0  0  0  0
   -1.0829   -0.0598    2.7676 C   0  0  0  0  0  0  0  0  0  0  0  0
   -2.0555   -1.0325    2.8160 C   0  0  0  0  0  0  0  0  0  0  0  0
   -2.5434   -1.5851    3.9741 O   0  0  0  0  0  0  0  0  0  0  0  0
   -2.1634   -1.2800    5.2803 C   0  0  0  0  0  0  0  0  0  0  0  0
   -2.5848   -1.4915    1.6080 C   0  0  0  0  0  0  0  0  0  0  0  0
   -3.5734   -2.4801    1.6456 C   0  0  0  0  0  0  0  0  0  0  0  0
   -4.1223   -2.9624    0.4936 C   0  0  0  0  0  0  0  0  0  0  0  0
   -3.6624   -2.4358   -0.7005 C   0  0  0  0  0  0  0  0  0  0  0  0
   -2.6920   -1.4635   -0.7736 C   0  0  0  0  0  0  0  0  0  0  0  0
   -2.1417   -0.9803    0.3896 C   0  0  0  0  0  0  0  0  0  0  0  0
   -5.1208    2.8663    0.5965 H   0  0  0  0  0  0  0  0  0  0  0  0
   -3.5696    3.3449    1.3825 H   0  0  0  0  0  0  0  0  0  0  0  0
   -4.9380    4.5533    1.3053 H   0  0  0  0  0  0  0  0  0  0  0  0
   -3.9190    5.3335   -0.6475 H   0  0  0  0  0  0  0  0  0  0  0  0
   -4.4838    3.8174   -1.3537 H   0  0  0  0  0  0  0  0  0  0  0  0
    0.8800    4.9597   -1.1490 H   0  0  0  0  0  0  0  0  0  0  0  0
   -0.7156    4.7142   -1.8409 H   0  0  0  0  0  0  0  0  0  0  0  0
   -0.5341    4.8386   -0.0086 H   0  0  0  0  0  0  0  0  0  0  0  0
    2.8212   -3.2497   -1.2514 H   0  0  0  0  0  0  0  0  0  0  0  0
    5.0345   -0.8235    0.1218 H   0  0  0  0  0  0  0  0  0  0  0  0
    7.4959   -0.6175   -0.1977 H   0  0  0  0  0  0  0  0  0  0  0  0
    8.5864   -1.8793   -2.0150 H   0  0  0  0  0  0  0  0  0  0  0  0
    7.2108   -3.3337   -3.4953 H   0  0  0  0  0  0  0  0  0  0  0  0
    4.2538   -4.5449   -2.9217 H   0  0  0  0  0  0  0  0  0  0  0  0
   -1.1110    0.2343   -1.8058 H   0  0  0  0  0  0  0  0  0  0  0  0
    0.1016    1.1895    1.5720 H   0  0  0  0  0  0  0  0  0  0  0  0
   -0.6601    0.3099    3.6764 H   0  0  0  0  0  0  0  0  0  0  0  0
   -1.1369   -0.8720    5.2687 H   0  0  0  0  0  0  0  0  0  0  0  0
   -2.9028   -0.6085    5.7905 H   0  0  0  0  0  0  0  0  0  0  0  0
   -2.2168   -2.2510    5.8537 H   0  0  0  0  0  0  0  0  0  0  0  0
   -3.9138   -2.8737    2.6030 H   0  0  0  0  0  0  0  0  0  0  0  0
   -4.8923   -3.7312    0.5061 H   0  0  0  0  0  0  0  0  0  0  0  0
   -4.1316   -2.8529   -1.6004 H   0  0  0  0  0  0  0  0  0  0  0  0
   -2.4125   -1.1297   -1.7586 H   0  0  0  0  0  0  0  0  0  0  0  0
  1  2  1  0
  2  3  1  0
  3  4  1  0
  4  5  2  0
  4  6  1  0
  6  7  2  0
  7  8  1  0
  7  9  1  0
  9 10  2  0
 10 11  1  0
 11 12  1  0
 12 13  2  3
 13 14  1  0
 14 15  2  0
 15 16  1  0
 16 17  2  0
 17 18  1  0
 18 19  2  0
 19 20  1  0
 12 21  1  0
 21 22  2  0
 21 23  1  0
 23 24  1  0
 24 25  1  0
 25 26  2  0
 26 27  1  0
 27 28  2  0
 28 29  1  0
 29 30  1  0
 28 31  1  0
 31 32  2  0
 32 33  1  0
 33 34  2  0
 34 35  1  0
 35 36  2  0
 24  6  1  0
 23 10  1  0
 19 14  1  0
 36 25  1  0
 36 31  1  0
  1 37  1  0
  1 38  1  0
  1 39  1  0
  2 40  1  0
  2 41  1  0
  8 42  1  0
  8 43  1  0
  8 44  1  0
 13 45  1  0
 15 46  1  0
 16 47  1  0
 17 48  1  0
 18 49  1  0
 20 50  1  0
 24 51  1  0
 26 52  1  0
 27 53  1  0
 30 54  1  0
 30 55  1  0
 30 56  1  0
 32 57  1  0
 33 58  1  0
 34 59  1  0
 35 60  1  0
M  END
>  <Batch_No>  (286) 
3270-1087

>  <EC50_nM>  (286) 
1510

>  <Set>  (286) 
Probe-like

>  <Molecular_Weight>  (286) 
500.56555

>  <ALogP>  (286) 
5.102

$$$$
MMV008455
     RDKit          3D

 68 72  0  0  0  0  0  0  0  0999 V2000
   -4.1619    5.3090   -2.2191 C   0  0  0  0  0  0  0  0  0  0  0  0
   -3.0346    4.5016   -2.5571 O   0  0  0  0  0  0  0  0  0  0  0  0
   -2.5576    3.5444   -1.6743 C   0  0  0  0  0  0  0  0  0  0  0  0
   -1.4793    2.7475   -1.9562 C   0  0  0  0  0  0  0  0  0  0  0  0
   -1.0402    1.8089   -1.0478 C   0  0  0  0  0  0  0  0  0  0  0  0
   -1.6309    1.5990    0.1827 C   0  0  0  0  0  0  0  0  0  0  0  0
   -2.7367    2.4314    0.4473 C   0  0  0  0  0  0  0  0  0  0  0  0
   -3.1766    3.3685   -0.4568 C   0  0  0  0  0  0  0  0  0  0  0  0
   -1.1642    0.5884    1.1567 C   0  0  0  0  0  0  0  0  0  0  0  0
    0.1900    0.8665    1.6939 C   0  0  0  0  0  0  0  0  0  0  0  0
    1.3280    0.7586    0.7670 C   0  0  0  0  0  0  0  0  0  0  0  0
    1.9313    1.8276    0.4031 O   0  0  0  0  0  0  0  0  0  0  0  0
    1.8346   -0.4454    0.2276 N   0  0  0  0  0  0  0  0  0  0  0  0
    2.9444   -0.4629   -0.6625 C   0  0  0  0  0  0  0  0  0  0  0  0
    2.8381   -0.3747   -2.0243 C   0  0  0  0  0  0  0  0  0  0  0  0
    3.9897   -0.4025   -2.7855 C   0  0  0  0  0  0  0  0  0  0  0  0
    5.2293   -0.5154   -2.2174 C   0  0  0  0  0  0  0  0  0  0  0  0
    5.3609   -0.6064   -0.8351 C   0  0  0  0  0  0  0  0  0  0  0  0
    6.6046   -0.7223   -0.2203 O   0  0  0  0  0  0  0  0  0  0  0  0
    6.7168   -0.8130    1.1762 C   0  0  0  0  0  0  0  0  0  0  0  0
    4.1969   -0.5772   -0.0844 C   0  0  0  0  0  0  0  0  0  0  0  0
    0.4651   -0.0208    2.8403 C   0  0  0  0  0  0  0  0  0  0  0  0
    1.3673    0.3796    3.8373 C   0  0  0  0  0  0  0  0  0  0  0  0
    1.6622   -0.4492    4.9002 C   0  0  0  0  0  0  0  0  0  0  0  0
    1.0944   -1.6987    5.0388 C   0  0  0  0  0  0  0  0  0  0  0  0
    0.2001   -2.1052    4.0590 C   0  0  0  0  0  0  0  0  0  0  0  0
   -0.0820   -1.2697    3.0105 C   0  0  0  0  0  0  0  0  0  0  0  0
   -1.0548   -1.6866    1.9952 C   0  0  0  0  0  0  0  0  0  0  0  0
   -1.5859   -2.8180    2.0936 O   0  0  0  0  0  0  0  0  0  0  0  0
   -1.3913   -0.7804    0.8852 N   0  0  0  0  0  0  0  0  0  0  0  0
   -1.9489   -1.4135   -0.2493 C   0  0  0  0  0  0  0  0  0  0  0  0
   -3.3723   -1.0746   -0.6097 C   0  0  0  0  0  0  0  0  0  0  0  0
   -3.6479   -1.7365   -1.9518 C   0  0  0  0  0  0  0  0  0  0  0  0
   -2.8995   -3.0278   -2.1133 C   0  0  0  0  0  0  0  0  0  0  0  0
   -1.4153   -2.7687   -2.2285 C   0  0  0  0  0  0  0  0  0  0  0  0
   -1.1872   -1.4057   -1.5405 C   0  0  0  0  0  0  0  0  0  0  0  0
   -5.1194    4.7664   -2.2898 H   0  0  0  0  0  0  0  0  0  0  0  0
   -4.0435    5.7453   -1.1928 H   0  0  0  0  0  0  0  0  0  0  0  0
   -4.2244    6.1933   -2.8844 H   0  0  0  0  0  0  0  0  0  0  0  0
   -0.9692    2.8678   -2.9184 H   0  0  0  0  0  0  0  0  0  0  0  0
   -0.1762    1.2295   -1.3393 H   0  0  0  0  0  0  0  0  0  0  0  0
   -3.2672    2.3386    1.3944 H   0  0  0  0  0  0  0  0  0  0  0  0
   -4.0473    3.9791   -0.1738 H   0  0  0  0  0  0  0  0  0  0  0  0
   -1.8253    0.8224    2.0714 H   0  0  0  0  0  0  0  0  0  0  0  0
    0.2112    1.9096    2.1883 H   0  0  0  0  0  0  0  0  0  0  0  0
    1.3823   -1.3468    0.4896 H   0  0  0  0  0  0  0  0  0  0  0  0
    1.8634   -0.2856   -2.4757 H   0  0  0  0  0  0  0  0  0  0  0  0
    3.9068   -0.3323   -3.8697 H   0  0  0  0  0  0  0  0  0  0  0  0
    6.1484   -0.5403   -2.7796 H   0  0  0  0  0  0  0  0  0  0  0  0
    6.1324   -1.6957    1.5133 H   0  0  0  0  0  0  0  0  0  0  0  0
    6.3198    0.0720    1.7107 H   0  0  0  0  0  0  0  0  0  0  0  0
    7.7971   -0.9977    1.4185 H   0  0  0  0  0  0  0  0  0  0  0  0
    4.3056   -0.6485    0.9915 H   0  0  0  0  0  0  0  0  0  0  0  0
    1.8504    1.3633    3.7805 H   0  0  0  0  0  0  0  0  0  0  0  0
    2.3621   -0.0839    5.6318 H   0  0  0  0  0  0  0  0  0  0  0  0
    1.3248   -2.3403    5.8638 H   0  0  0  0  0  0  0  0  0  0  0  0
   -0.2464   -3.0640    4.1498 H   0  0  0  0  0  0  0  0  0  0  0  0
   -2.0158   -2.5297    0.0152 H   0  0  0  0  0  0  0  0  0  0  0  0
   -4.0807   -1.5633    0.0944 H   0  0  0  0  0  0  0  0  0  0  0  0
   -3.5686   -0.0169   -0.7688 H   0  0  0  0  0  0  0  0  0  0  0  0
   -4.7410   -2.0261   -2.0051 H   0  0  0  0  0  0  0  0  0  0  0  0
   -3.5284   -1.0452   -2.8110 H   0  0  0  0  0  0  0  0  0  0  0  0
   -3.1060   -3.6645   -1.2473 H   0  0  0  0  0  0  0  0  0  0  0  0
   -3.2976   -3.5278   -3.0344 H   0  0  0  0  0  0  0  0  0  0  0  0
   -0.8235   -3.5537   -1.7397 H   0  0  0  0  0  0  0  0  0  0  0  0
   -1.1653   -2.7435   -3.2921 H   0  0  0  0  0  0  0  0  0  0  0  0
   -0.1334   -1.1906   -1.5000 H   0  0  0  0  0  0  0  0  0  0  0  0
   -1.6119   -0.6464   -2.2719 H   0  0  0  0  0  0  0  0  0  0  0  0
  1  2  1  0
  2  3  1  0
  3  4  2  0
  4  5  1  0
  5  6  2  0
  6  7  1  0
  7  8  2  0
  6  9  1  0
  9 10  1  0
 10 11  1  0
 11 12  2  0
 11 13  1  0
 13 14  1  0
 14 15  2  0
 15 16  1  0
 16 17  2  0
 17 18  1  0
 18 19  1  0
 19 20  1  0
 18 21  2  0
 10 22  1  0
 22 23  2  0
 23 24  1  0
 24 25  2  0
 25 26  1  0
 26 27  2  0
 27 28  1  0
 28 29  2  0
 28 30  1  0
 30 31  1  0
 31 32  1  0
 32 33  1  0
 33 34  1  0
 34 35  1  0
 35 36  1  0
  8  3  1  0
 30  9  1  0
 21 14  1  0
 27 22  1  0
 36 31  1  0
  1 37  1  0
  1 38  1  0
  1 39  1  0
  4 40  1  0
  5 41  1  0
  7 42  1  0
  8 43  1  0
  9 44  1  0
 10 45  1  0
 13 46  1  0
 15 47  1  0
 16 48  1  0
 17 49  1  0
 20 50  1  0
 20 51  1  0
 20 52  1  0
 21 53  1  0
 23 54  1  0
 24 55  1  0
 25 56  1  0
 26 57  1  0
 31 58  1  0
 32 59  1  0
 32 60  1  0
 33 61  1  0
 33 62  1  0
 34 63  1  0
 34 64  1  0
 35 65  1  0
 35 66  1  0
 36 67  1  0
 36 68  1  0
M  END
>  <Batch_No>  (287) 
C066-0502

>  <EC50_nM>  (287) 
1180

>  <Set>  (287) 
Probe-like

>  <Molecular_Weight>  (287) 
484.58607

>  <ALogP>  (287) 
5.23

$$$$
MMV007199
     RDKit          3D

 50 53  0  0  0  0  0  0  0  0999 V2000
   -6.4414    1.0000   -2.1416 C   0  0  0  0  0  0  0  0  0  0  0  0
   -5.6776    0.4245   -1.1190 O   0  0  0  0  0  0  0  0  0  0  0  0
   -6.1444   -0.3214   -0.0689 C   0  0  0  0  0  0  0  0  0  0  0  0
   -7.5096   -0.5511    0.0260 C   0  0  0  0  0  0  0  0  0  0  0  0
   -7.9975   -1.2977    1.0746 C   0  0  0  0  0  0  0  0  0  0  0  0
   -7.1583   -1.8385    2.0573 C   0  0  0  0  0  0  0  0  0  0  0  0
   -5.7904   -1.5961    1.9423 C   0  0  0  0  0  0  0  0  0  0  0  0
   -5.2716   -0.8446    0.8923 C   0  0  0  0  0  0  0  0  0  0  0  0
   -3.8462   -0.6098    0.7856 N   0  0  0  0  0  0  0  0  0  0  0  0
   -2.9190   -1.6647    0.9611 C   0  0  0  0  0  0  0  0  0  0  0  0
   -3.0611   -2.9207    0.8443 N   0  0  0  0  0  0  0  0  0  0  0  0
   -1.3691   -0.7993    1.4152 S   0  0  0  0  0  0  0  0  0  0  0  0
   -1.8344    0.6473    0.4062 C   0  0  0  0  0  0  0  0  0  0  0  0
   -1.0299    1.4626   -0.2399 C   0  0  0  0  0  0  0  0  0  0  0  0
    0.4045    1.2262   -0.1693 C   0  0  0  0  0  0  0  0  0  0  0  0
    1.0764    1.2395   -1.3971 C   0  0  0  0  0  0  0  0  0  0  0  0
    2.4254    1.0507   -1.4846 C   0  0  0  0  0  0  0  0  0  0  0  0
    3.1101    0.8423   -0.2941 C   0  0  0  0  0  0  0  0  0  0  0  0
    4.4796    0.6499   -0.4050 O   0  0  0  0  0  0  0  0  0  0  0  0
    5.2299    0.4575    0.7580 C   0  0  0  0  0  0  0  0  0  0  0  0
    6.6732    0.2161    0.4619 C   0  0  0  0  0  0  0  0  0  0  0  0
    7.6429    1.1871    0.5811 C   0  0  0  0  0  0  0  0  0  0  0  0
    8.9566    0.8299    0.2648 C   0  0  0  0  0  0  0  0  0  0  0  0
    9.2559   -0.4486   -0.1479 C   0  0  0  0  0  0  0  0  0  0  0  0
    8.2944   -1.4381   -0.2721 C   0  0  0  0  0  0  0  0  0  0  0  0
    6.9988   -1.0641    0.0452 C   0  0  0  0  0  0  0  0  0  0  0  0
    6.0184   -2.0094   -0.0632 F   0  0  0  0  0  0  0  0  0  0  0  0
    2.4557    0.8261    0.9350 C   0  0  0  0  0  0  0  0  0  0  0  0
    1.0916    1.0187    1.0038 C   0  0  0  0  0  0  0  0  0  0  0  0
   -3.2920    0.6391    0.4900 C   0  0  0  0  0  0  0  0  0  0  0  0
   -3.9503    1.7234    0.2976 O   0  0  0  0  0  0  0  0  0  0  0  0
   -7.1417    1.7875   -1.7939 H   0  0  0  0  0  0  0  0  0  0  0  0
   -7.0412    0.2606   -2.7054 H   0  0  0  0  0  0  0  0  0  0  0  0
   -5.7702    1.5305   -2.8708 H   0  0  0  0  0  0  0  0  0  0  0  0
   -8.2196   -0.1584   -0.7035 H   0  0  0  0  0  0  0  0  0  0  0  0
   -9.0602   -1.4880    1.1609 H   0  0  0  0  0  0  0  0  0  0  0  0
   -7.5700   -2.4309    2.8790 H   0  0  0  0  0  0  0  0  0  0  0  0
   -5.1330   -2.0210    2.7167 H   0  0  0  0  0  0  0  0  0  0  0  0
   -2.2416   -3.5407    1.0190 H   0  0  0  0  0  0  0  0  0  0  0  0
   -1.4777    2.2791   -0.8002 H   0  0  0  0  0  0  0  0  0  0  0  0
    0.5209    1.4039   -2.3378 H   0  0  0  0  0  0  0  0  0  0  0  0
    2.9048    1.0679   -2.4504 H   0  0  0  0  0  0  0  0  0  0  0  0
    4.7966   -0.3630    1.3508 H   0  0  0  0  0  0  0  0  0  0  0  0
    5.1178    1.3892    1.3785 H   0  0  0  0  0  0  0  0  0  0  0  0
    7.3828    2.1801    0.9051 H   0  0  0  0  0  0  0  0  0  0  0  0
    9.7523    1.5486    0.3398 H   0  0  0  0  0  0  0  0  0  0  0  0
   10.2712   -0.7193   -0.3902 H   0  0  0  0  0  0  0  0  0  0  0  0
    8.5277   -2.4355   -0.5897 H   0  0  0  0  0  0  0  0  0  0  0  0
    3.0279    0.6612    1.8380 H   0  0  0  0  0  0  0  0  0  0  0  0
    0.5327    1.0117    1.9397 H   0  0  0  0  0  0  0  0  0  0  0  0
  1  2  1  0
  2  3  1  0
  3  4  2  0
  4  5  1  0
  5  6  2  0
  6  7  1  0
  7  8  2  0
  8  9  1  0
  9 10  1  0
 10 11  2  3
 10 12  1  0
 12 13  1  0
 13 14  2  3
 14 15  1  0
 15 16  2  0
 16 17  1  0
 17 18  2  0
 18 19  1  0
 19 20  1  0
 20 21  1  0
 21 22  2  0
 22 23  1  0
 23 24  2  0
 24 25  1  0
 25 26  2  0
 26 27  1  0
 18 28  1  0
 28 29  2  0
 13 30  1  0
 30 31  2  0
  8  3  1  0
 30  9  1  0
 29 15  1  0
 26 21  1  0
  1 32  1  0
  1 33  1  0
  1 34  1  0
  4 35  1  0
  5 36  1  0
  6 37  1  0
  7 38  1  0
 11 39  1  0
 14 40  1  0
 16 41  1  0
 17 42  1  0
 20 43  1  0
 20 44  1  0
 22 45  1  0
 23 46  1  0
 24 47  1  0
 25 48  1  0
 28 49  1  0
 29 50  1  0
M  END
>  <Batch_No>  (288) 
8012-3324

>  <EC50_nM>  (288) 
477.5

>  <Set>  (288) 
Probe-like

>  <Molecular_Weight>  (288) 
434.48266

>  <ALogP>  (288) 
5.535

$$$$
MMV085471
     RDKit          3D

 61 65  0  0  0  0  0  0  0  0999 V2000
    8.9882   -0.0771   -0.8588 C   0  0  0  0  0  0  0  0  0  0  0  0
    8.6123    1.3820   -0.7542 C   0  0  0  0  0  0  0  0  0  0  0  0
    7.6134    1.6719    0.1611 O   0  0  0  0  0  0  0  0  0  0  0  0
    6.3428    1.1731    0.1056 C   0  0  0  0  0  0  0  0  0  0  0  0
    5.4737    1.5839    1.1205 C   0  0  0  0  0  0  0  0  0  0  0  0
    4.1908    1.1463    1.1540 C   0  0  0  0  0  0  0  0  0  0  0  0
    3.6927    0.2710    0.1780 C   0  0  0  0  0  0  0  0  0  0  0  0
    4.5247   -0.1484   -0.8269 C   0  0  0  0  0  0  0  0  0  0  0  0
    5.8269    0.3243   -0.8225 C   0  0  0  0  0  0  0  0  0  0  0  0
    2.3276   -0.0682    0.3240 N   0  0  0  0  0  0  0  0  0  0  0  0
    1.3607    0.5745   -0.3818 C   0  0  0  0  0  0  0  0  0  0  0  0
    0.1169    0.0645    0.0082 C   0  0  0  0  0  0  0  0  0  0  0  0
   -1.0834    0.4806   -0.7391 C   0  0  0  0  0  0  0  0  0  0  0  0
   -1.7357   -0.5845   -1.3678 C   0  0  0  0  0  0  0  0  0  0  0  0
   -2.8020   -0.2964   -2.2243 C   0  0  0  0  0  0  0  0  0  0  0  0
   -3.1494    1.0394   -2.3975 C   0  0  0  0  0  0  0  0  0  0  0  0
   -2.4988    2.0753   -1.7680 C   0  0  0  0  0  0  0  0  0  0  0  0
   -1.4302    1.7878   -0.9086 C   0  0  0  0  0  0  0  0  0  0  0  0
    0.3272   -0.8811    0.9508 C   0  0  0  0  0  0  0  0  0  0  0  0
   -0.5689   -1.6836    1.6308 C   0  0  0  0  0  0  0  0  0  0  0  0
   -2.1666   -1.4884    1.7875 S   0  0  0  0  0  0  0  0  0  0  0  0
   -3.7147   -1.0729    1.8326 C   0  0  0  0  0  0  0  0  0  0  0  0
   -4.5603   -0.7540    0.6531 C   0  0  0  0  0  0  0  0  0  0  0  0
   -4.9285    0.5764    0.5006 C   0  0  0  0  0  0  0  0  0  0  0  0
   -5.7731    1.0237   -0.4913 C   0  0  0  0  0  0  0  0  0  0  0  0
   -6.0544    2.4845   -0.5085 C   0  0  0  0  0  0  0  0  0  0  0  0
   -6.2652    0.1070   -1.3651 C   0  0  0  0  0  0  0  0  0  0  0  0
   -5.9024   -1.2157   -1.2189 C   0  0  0  0  0  0  0  0  0  0  0  0
   -5.0593   -1.6926   -0.2326 C   0  0  0  0  0  0  0  0  0  0  0  0
   -4.6723   -3.0929   -0.0979 C   0  0  0  0  0  0  0  0  0  0  0  0
    0.0912   -2.5852    2.4941 N   0  0  0  0  0  0  0  0  0  0  0  0
    1.3882   -2.6642    2.6582 C   0  0  0  0  0  0  0  0  0  0  0  0
    2.1815   -1.8362    1.9632 N   0  0  0  0  0  0  0  0  0  0  0  0
    1.6908   -0.9391    1.1110 C   0  0  0  0  0  0  0  0  0  0  0  0
   10.0725   -0.1770   -0.5833 H   0  0  0  0  0  0  0  0  0  0  0  0
    8.4174   -0.7173   -0.1791 H   0  0  0  0  0  0  0  0  0  0  0  0
    8.8098   -0.4307   -1.8951 H   0  0  0  0  0  0  0  0  0  0  0  0
    8.2273    1.7432   -1.7652 H   0  0  0  0  0  0  0  0  0  0  0  0
    9.4891    2.0459   -0.5646 H   0  0  0  0  0  0  0  0  0  0  0  0
    5.7995    2.2586    1.9100 H   0  0  0  0  0  0  0  0  0  0  0  0
    3.5412    1.4801    1.9619 H   0  0  0  0  0  0  0  0  0  0  0  0
    4.1312   -0.8172   -1.5642 H   0  0  0  0  0  0  0  0  0  0  0  0
    6.4965   -0.0066   -1.6206 H   0  0  0  0  0  0  0  0  0  0  0  0
    1.5314    1.3618   -1.1391 H   0  0  0  0  0  0  0  0  0  0  0  0
   -1.4705   -1.6079   -1.2364 H   0  0  0  0  0  0  0  0  0  0  0  0
   -3.2888   -1.1277   -2.6901 H   0  0  0  0  0  0  0  0  0  0  0  0
   -3.9910    1.2023   -3.0879 H   0  0  0  0  0  0  0  0  0  0  0  0
   -2.8069    3.1006   -1.9561 H   0  0  0  0  0  0  0  0  0  0  0  0
   -0.8929    2.5345   -0.4016 H   0  0  0  0  0  0  0  0  0  0  0  0
   -4.0063   -0.2207    2.6351 H   0  0  0  0  0  0  0  0  0  0  0  0
   -4.3733   -1.9210    2.3940 H   0  0  0  0  0  0  0  0  0  0  0  0
   -4.5292    1.3017    1.1907 H   0  0  0  0  0  0  0  0  0  0  0  0
   -5.2138    3.0524   -0.0246 H   0  0  0  0  0  0  0  0  0  0  0  0
   -7.0084    2.6627    0.0275 H   0  0  0  0  0  0  0  0  0  0  0  0
   -6.1403    2.8921   -1.5110 H   0  0  0  0  0  0  0  0  0  0  0  0
   -6.9210    0.4260   -2.1448 H   0  0  0  0  0  0  0  0  0  0  0  0
   -6.3303   -1.9003   -1.9501 H   0  0  0  0  0  0  0  0  0  0  0  0
   -5.5832   -3.7199   -0.2687 H   0  0  0  0  0  0  0  0  0  0  0  0
   -3.9258   -3.3794   -0.8828 H   0  0  0  0  0  0  0  0  0  0  0  0
   -4.2888   -3.3630    0.9072 H   0  0  0  0  0  0  0  0  0  0  0  0
    1.8701   -3.3587    3.3193 H   0  0  0  0  0  0  0  0  0  0  0  0
  1  2  1  0
  2  3  1  0
  3  4  1  0
  4  5  2  0
  5  6  1  0
  6  7  2  0
  7  8  1  0
  8  9  2  0
  7 10  1  0
 10 11  1  0
 11 12  2  0
 12 13  1  0
 13 14  2  0
 14 15  1  0
 15 16  2  0
 16 17  1  0
 17 18  2  0
 12 19  1  0
 19 20  2  0
 20 21  1  0
 21 22  1  0
 22 23  1  0
 23 24  2  0
 24 25  1  0
 25 26  1  0
 25 27  2  0
 27 28  1  0
 28 29  2  0
 29 30  1  0
 20 31  1  0
 31 32  2  0
 32 33  1  0
 33 34  2  0
  9  4  1  0
 34 10  1  0
 18 13  1  0
 34 19  1  0
 29 23  1  0
  1 35  1  0
  1 36  1  0
  1 37  1  0
  2 38  1  0
  2 39  1  0
  5 40  1  0
  6 41  1  0
  8 42  1  0
  9 43  1  0
 11 44  1  0
 14 45  1  0
 15 46  1  0
 16 47  1  0
 17 48  1  0
 18 49  1  0
 22 50  1  0
 22 51  1  0
 24 52  1  0
 26 53  1  0
 26 54  1  0
 26 55  1  0
 27 56  1  0
 28 57  1  0
 30 58  1  0
 30 59  1  0
 30 60  1  0
 32 61  1  0
M  END
>  <Batch_No>  (289) 
STK890553

>  <EC50_nM>  (289) 
1705

>  <Set>  (289) 
Probe-like

>  <Molecular_Weight>  (289) 
465.60917

>  <ALogP>  (289) 
7.814

$$$$
MMV665797
     RDKit          3D

 51 53  0  0  0  0  0  0  0  0999 V2000
    6.9932   -0.4146    1.1315 C   0  0  0  0  0  0  0  0  0  0  0  0
    6.3514    0.7833    0.4827 C   0  0  0  0  0  0  0  0  0  0  0  0
    6.4908    0.6934   -1.0204 C   0  0  0  0  0  0  0  0  0  0  0  0
    5.8304   -0.5455   -1.5747 C   0  0  0  0  0  0  0  0  0  0  0  0
    4.4622   -0.5097   -1.2511 O   0  0  0  0  0  0  0  0  0  0  0  0
    3.5272   -1.4605   -1.5817 C   0  0  0  0  0  0  0  0  0  0  0  0
    3.8662   -2.4789   -2.2329 O   0  0  0  0  0  0  0  0  0  0  0  0
    2.1351   -1.2867   -1.1748 C   0  0  0  0  0  0  0  0  0  0  0  0
    1.1722   -2.2232   -1.4911 C   0  0  0  0  0  0  0  0  0  0  0  0
   -0.1279   -2.0376   -1.0983 C   0  0  0  0  0  0  0  0  0  0  0  0
   -0.5370   -0.9309   -0.3820 C   0  0  0  0  0  0  0  0  0  0  0  0
   -1.9052   -0.8139    0.0203 N   0  0  0  0  0  0  0  0  0  0  0  0
   -2.6703    0.3671   -0.1462 C   0  0  0  0  0  0  0  0  0  0  0  0
   -2.1869    1.4899   -0.7765 C   0  0  0  0  0  0  0  0  0  0  0  0
   -2.9335    2.6548   -0.9215 C   0  0  0  0  0  0  0  0  0  0  0  0
   -2.3546    3.8355   -1.6122 C   0  0  0  0  0  0  0  0  0  0  0  0
   -4.1914    2.6785   -0.4184 N   0  0  0  0  0  0  0  0  0  0  0  0
   -4.7141    1.6020    0.2092 C   0  0  0  0  0  0  0  0  0  0  0  0
   -5.9984    1.7091    0.6913 C   0  0  0  0  0  0  0  0  0  0  0  0
   -6.5968    0.6717    1.3354 C   0  0  0  0  0  0  0  0  0  0  0  0
   -5.8694   -0.4951    1.4894 C   0  0  0  0  0  0  0  0  0  0  0  0
   -6.5118   -1.5374    2.1535 O   0  0  0  0  0  0  0  0  0  0  0  0
   -5.7836   -2.7410    2.3213 C   0  0  0  0  0  0  0  0  0  0  0  0
   -4.5778   -0.6023    1.0045 C   0  0  0  0  0  0  0  0  0  0  0  0
   -3.9554    0.4372    0.3496 C   0  0  0  0  0  0  0  0  0  0  0  0
    0.4244   -0.0007   -0.0680 C   0  0  0  0  0  0  0  0  0  0  0  0
    1.7537   -0.1728   -0.4601 C   0  0  0  0  0  0  0  0  0  0  0  0
    8.0790   -0.4122    0.9062 H   0  0  0  0  0  0  0  0  0  0  0  0
    6.9469   -0.2667    2.2500 H   0  0  0  0  0  0  0  0  0  0  0  0
    6.5821   -1.3814    0.8345 H   0  0  0  0  0  0  0  0  0  0  0  0
    5.3039    0.9309    0.8052 H   0  0  0  0  0  0  0  0  0  0  0  0
    6.9232    1.6700    0.8236 H   0  0  0  0  0  0  0  0  0  0  0  0
    7.5725    0.6230   -1.2514 H   0  0  0  0  0  0  0  0  0  0  0  0
    6.0581    1.5633   -1.5324 H   0  0  0  0  0  0  0  0  0  0  0  0
    6.0109   -0.5270   -2.6692 H   0  0  0  0  0  0  0  0  0  0  0  0
    6.2576   -1.4829   -1.1760 H   0  0  0  0  0  0  0  0  0  0  0  0
    1.4153   -3.1174   -2.0505 H   0  0  0  0  0  0  0  0  0  0  0  0
   -0.8786   -2.7749   -1.3490 H   0  0  0  0  0  0  0  0  0  0  0  0
   -2.2978   -1.6881    0.4518 H   0  0  0  0  0  0  0  0  0  0  0  0
   -1.2019    1.5162   -1.2055 H   0  0  0  0  0  0  0  0  0  0  0  0
   -1.6150    4.2939   -0.9482 H   0  0  0  0  0  0  0  0  0  0  0  0
   -1.8438    3.5588   -2.5695 H   0  0  0  0  0  0  0  0  0  0  0  0
   -3.1921    4.5109   -1.8963 H   0  0  0  0  0  0  0  0  0  0  0  0
   -6.5653    2.6437    0.5615 H   0  0  0  0  0  0  0  0  0  0  0  0
   -7.6066    0.7979    1.6982 H   0  0  0  0  0  0  0  0  0  0  0  0
   -4.8272   -2.4668    2.8458 H   0  0  0  0  0  0  0  0  0  0  0  0
   -6.3660   -3.4976    2.8738 H   0  0  0  0  0  0  0  0  0  0  0  0
   -5.4824   -3.0788    1.3088 H   0  0  0  0  0  0  0  0  0  0  0  0
   -4.0811   -1.5334    1.1621 H   0  0  0  0  0  0  0  0  0  0  0  0
    0.2157    0.8814    0.4972 H   0  0  0  0  0  0  0  0  0  0  0  0
    2.5000    0.5655   -0.2078 H   0  0  0  0  0  0  0  0  0  0  0  0
  1  2  1  0
  2  3  1  0
  3  4  1  0
  4  5  1  0
  5  6  1  0
  6  7  2  0
  6  8  1  0
  8  9  2  0
  9 10  1  0
 10 11  2  0
 11 12  1  0
 12 13  1  0
 13 14  2  0
 14 15  1  0
 15 16  1  0
 15 17  2  0
 17 18  1  0
 18 19  2  0
 19 20  1  0
 20 21  2  0
 21 22  1  0
 22 23  1  0
 21 24  1  0
 24 25  2  0
 11 26  1  0
 26 27  2  0
 27  8  1  0
 25 13  1  0
 25 18  1  0
  1 28  1  0
  1 29  1  0
  1 30  1  0
  2 31  1  0
  2 32  1  0
  3 33  1  0
  3 34  1  0
  4 35  1  0
  4 36  1  0
  9 37  1  0
 10 38  1  0
 12 39  1  0
 14 40  1  0
 16 41  1  0
 16 42  1  0
 16 43  1  0
 19 44  1  0
 20 45  1  0
 23 46  1  0
 23 47  1  0
 23 48  1  0
 24 49  1  0
 26 50  1  0
 27 51  1  0
M  END
>  <Batch_No>  (290) 
AG-205/10703018

>  <EC50_nM>  (290) 
584

>  <Set>  (290) 
Probe-like

>  <Molecular_Weight>  (290) 
364.43755

>  <ALogP>  (290) 
5.016

$$$$
MMV006513
     RDKit          3D

 45 49  0  0  0  0  0  0  0  0999 V2000
    0.2644    0.0055    0.0605 C   0  0  0  0  0  0  0  0  0  0  0  0
    1.6161   -0.2671   -0.5570 C   0  0  0  0  0  0  0  0  0  0  0  0
    2.7125    0.1849    0.3634 C   0  0  0  0  0  0  0  0  0  0  0  0
    2.5838    0.7743    1.6121 C   0  0  0  0  0  0  0  0  0  0  0  0
    3.8326    1.0114    2.0739 N   0  0  0  0  0  0  0  0  0  0  0  0
    4.7465    0.5933    1.1625 C   0  0  0  0  0  0  0  0  0  0  0  0
    6.1244    0.6051    1.1445 C   0  0  0  0  0  0  0  0  0  0  0  0
    6.8563    0.1105    0.0771 C   0  0  0  0  0  0  0  0  0  0  0  0
    6.1646   -0.4166   -1.0145 C   0  0  0  0  0  0  0  0  0  0  0  0
    4.7802   -0.4331   -1.0062 C   0  0  0  0  0  0  0  0  0  0  0  0
    4.0694    0.0639    0.0655 C   0  0  0  0  0  0  0  0  0  0  0  0
   -0.8178   -0.4223   -0.8092 N   0  0  0  0  0  0  0  0  0  0  0  0
   -2.1927   -0.2766   -0.4590 C   0  0  0  0  0  0  0  0  0  0  0  0
   -2.8593    0.8934   -0.8148 C   0  0  0  0  0  0  0  0  0  0  0  0
   -2.1887    1.9076   -1.5044 C   0  0  0  0  0  0  0  0  0  0  0  0
   -2.8644    3.0613   -1.8497 C   0  0  0  0  0  0  0  0  0  0  0  0
   -4.1972    3.2075   -1.5126 C   0  0  0  0  0  0  0  0  0  0  0  0
   -4.8543    2.2062   -0.8332 C   0  0  0  0  0  0  0  0  0  0  0  0
   -4.1923    1.0369   -0.4763 C   0  0  0  0  0  0  0  0  0  0  0  0
   -4.8265    0.0384    0.1947 N   0  0  0  0  0  0  0  0  0  0  0  0
   -4.1975   -1.0968    0.5453 C   0  0  0  0  0  0  0  0  0  0  0  0
   -4.8733   -2.0971    1.2299 C   0  0  0  0  0  0  0  0  0  0  0  0
   -4.1628   -3.2435    1.5610 C   0  0  0  0  0  0  0  0  0  0  0  0
   -2.8306   -3.4100    1.2337 C   0  0  0  0  0  0  0  0  0  0  0  0
   -2.1565   -2.4135    0.5515 C   0  0  0  0  0  0  0  0  0  0  0  0
   -2.8644   -1.2717    0.2218 C   0  0  0  0  0  0  0  0  0  0  0  0
    0.1512    1.1040    0.2796 H   0  0  0  0  0  0  0  0  0  0  0  0
    0.2482   -0.4802    1.0459 H   0  0  0  0  0  0  0  0  0  0  0  0
    1.7361    0.1481   -1.5675 H   0  0  0  0  0  0  0  0  0  0  0  0
    1.6778   -1.3809   -0.6533 H   0  0  0  0  0  0  0  0  0  0  0  0
    1.6341    0.9881    2.0933 H   0  0  0  0  0  0  0  0  0  0  0  0
    4.0735    1.4487    2.9901 H   0  0  0  0  0  0  0  0  0  0  0  0
    6.6655    1.0189    2.0014 H   0  0  0  0  0  0  0  0  0  0  0  0
    7.9300    0.1083    0.0390 H   0  0  0  0  0  0  0  0  0  0  0  0
    6.7256   -0.8006   -1.8428 H   0  0  0  0  0  0  0  0  0  0  0  0
    4.2691   -0.8444   -1.8589 H   0  0  0  0  0  0  0  0  0  0  0  0
   -0.6145   -0.8621   -1.7441 H   0  0  0  0  0  0  0  0  0  0  0  0
   -1.1435    1.8106   -1.7772 H   0  0  0  0  0  0  0  0  0  0  0  0
   -2.4034    3.8776   -2.3807 H   0  0  0  0  0  0  0  0  0  0  0  0
   -4.7597    4.1066   -1.7706 H   0  0  0  0  0  0  0  0  0  0  0  0
   -5.9118    2.3305   -0.5697 H   0  0  0  0  0  0  0  0  0  0  0  0
   -5.9254   -1.9933    1.5016 H   0  0  0  0  0  0  0  0  0  0  0  0
   -4.6442   -4.0699    2.1030 H   0  0  0  0  0  0  0  0  0  0  0  0
   -2.2673   -4.3013    1.4879 H   0  0  0  0  0  0  0  0  0  0  0  0
   -1.1136   -2.5606    0.3034 H   0  0  0  0  0  0  0  0  0  0  0  0
  1  2  1  0
  2  3  1  0
  3  4  2  0
  4  5  1  0
  5  6  1  0
  6  7  2  0
  7  8  1  0
  8  9  2  0
  9 10  1  0
 10 11  2  0
  1 12  1  0
 12 13  1  0
 13 14  1  0
 14 15  2  0
 15 16  1  0
 16 17  2  0
 17 18  1  0
 18 19  2  0
 19 20  1  0
 20 21  2  0
 21 22  1  0
 22 23  2  0
 23 24  1  0
 24 25  2  0
 25 26  1  0
 11  3  1  0
 11  6  1  0
 26 13  2  0
 19 14  1  0
 26 21  1  0
  1 27  1  0
  1 28  1  0
  2 29  1  0
  2 30  1  0
  4 31  1  0
  5 32  1  0
  7 33  1  0
  8 34  1  0
  9 35  1  0
 10 36  1  0
 12 37  1  0
 15 38  1  0
 16 39  1  0
 17 40  1  0
 18 41  1  0
 22 42  1  0
 23 43  1  0
 24 44  1  0
 25 45  1  0
M  END
>  <Batch_No>  (291) 
6120-0025

>  <EC50_nM>  (291) 
304

>  <Set>  (291) 
Probe-like

>  <Molecular_Weight>  (291) 
337.41706

>  <ALogP>  (291) 
5.36

$$$$
MMV666095
     RDKit          3D

 30 31  0  0  0  0  0  0  0  0999 V2000
    2.7766   -1.2800    0.5636 C   0  0  0  0  0  0  0  0  0  0  0  0
    3.0630    0.1924    0.2070 C   0  0  0  0  0  0  0  0  0  0  0  0
    2.1031    0.6562   -0.8639 C   0  0  0  0  0  0  0  0  0  0  0  0
    0.7090    0.5909   -0.4357 C   0  0  0  0  0  0  0  0  0  0  0  0
    0.1079    1.5846    0.3336 C   0  0  0  0  0  0  0  0  0  0  0  0
    0.7899    2.8186    0.7318 C   0  0  0  0  0  0  0  0  0  0  0  0
   -1.1934    1.4203    0.7151 N   0  0  0  0  0  0  0  0  0  0  0  0
   -1.9434    0.3711    0.4048 C   0  0  0  0  0  0  0  0  0  0  0  0
   -3.2392    0.3437    0.8627 C   0  0  0  0  0  0  0  0  0  0  0  0
   -4.0405   -0.7429    0.5517 C   0  0  0  0  0  0  0  0  0  0  0  0
   -3.4797   -1.7477   -0.2112 C   0  0  0  0  0  0  0  0  0  0  0  0
   -4.5951   -3.2401   -0.6323 Br  0  0  0  0  0  0  0  0  0  0  0  0
   -2.1874   -1.7282   -0.6723 C   0  0  0  0  0  0  0  0  0  0  0  0
   -1.3858   -0.6409   -0.3609 C   0  0  0  0  0  0  0  0  0  0  0  0
   -0.0865   -0.5132   -0.7614 C   0  0  0  0  0  0  0  0  0  0  0  0
    0.4559   -1.5446   -1.5324 O   0  0  0  0  0  0  0  0  0  0  0  0
    1.7381   -1.3897    0.9512 H   0  0  0  0  0  0  0  0  0  0  0  0
    3.4546   -1.6000    1.3820 H   0  0  0  0  0  0  0  0  0  0  0  0
    2.9397   -1.9121   -0.3229 H   0  0  0  0  0  0  0  0  0  0  0  0
    2.9116    0.7277    1.1495 H   0  0  0  0  0  0  0  0  0  0  0  0
    4.1189    0.2194   -0.1717 H   0  0  0  0  0  0  0  0  0  0  0  0
    2.4170    1.6111   -1.3214 H   0  0  0  0  0  0  0  0  0  0  0  0
    2.2219   -0.0977   -1.6967 H   0  0  0  0  0  0  0  0  0  0  0  0
    1.8026    2.7428    1.1007 H   0  0  0  0  0  0  0  0  0  0  0  0
    0.1968    3.2988    1.5673 H   0  0  0  0  0  0  0  0  0  0  0  0
    0.6797    3.5439   -0.1185 H   0  0  0  0  0  0  0  0  0  0  0  0
   -3.6729    1.1159    1.4505 H   0  0  0  0  0  0  0  0  0  0  0  0
   -5.0605   -0.7651    0.9106 H   0  0  0  0  0  0  0  0  0  0  0  0
   -1.7476   -2.5124   -1.2677 H   0  0  0  0  0  0  0  0  0  0  0  0
    0.1456   -1.5228   -2.5131 H   0  0  0  0  0  0  0  0  0  0  0  0
  1  2  1  0
  2  3  1  0
  3  4  1  0
  4  5  2  0
  5  6  1  0
  5  7  1  0
  7  8  2  0
  8  9  1  0
  9 10  2  0
 10 11  1  0
 11 12  1  0
 11 13  2  0
 13 14  1  0
 14 15  2  0
 15 16  1  0
 15  4  1  0
 14  8  1  0
  1 17  1  0
  1 18  1  0
  1 19  1  0
  2 20  1  0
  2 21  1  0
  3 22  1  0
  3 23  1  0
  6 24  1  0
  6 25  1  0
  6 26  1  0
  9 27  1  0
 10 28  1  0
 13 29  1  0
 16 30  1  0
M  END
>  <Batch_No>  (292) 
BAS 00333897

>  <EC50_nM>  (292) 
1190

>  <Set>  (292) 
Probe-like

>  <Molecular_Weight>  (292) 
280.16035

>  <ALogP>  (292) 
4.203

$$$$
MMV665943
     RDKit          3D

 55 60  0  0  0  0  0  0  0  0999 V2000
   -9.2759    3.4941    0.5973 N   0  0  0  0  0  0  0  0  0  0  0  0
   -8.1578    2.6444    0.3441 C   0  0  0  0  0  0  0  0  0  0  0  0
   -8.0022    1.4700    1.0469 C   0  0  0  0  0  0  0  0  0  0  0  0
   -6.9281    0.6085    0.8353 C   0  0  0  0  0  0  0  0  0  0  0  0
   -5.9926    0.9392   -0.1044 C   0  0  0  0  0  0  0  0  0  0  0  0
   -6.1225    2.1105   -0.8245 C   0  0  0  0  0  0  0  0  0  0  0  0
   -7.1990    2.9668   -0.6074 C   0  0  0  0  0  0  0  0  0  0  0  0
   -4.8639    0.0415   -0.3321 C   0  0  0  0  0  0  0  0  0  0  0  0
   -3.8416    0.1636   -1.1919 N   0  0  0  0  0  0  0  0  0  0  0  0
   -3.0060   -0.8876   -1.0904 C   0  0  0  0  0  0  0  0  0  0  0  0
   -1.8328   -1.2856   -1.7010 C   0  0  0  0  0  0  0  0  0  0  0  0
   -1.2120   -2.4672   -1.3456 C   0  0  0  0  0  0  0  0  0  0  0  0
    0.0430   -2.9511   -1.9582 C   0  0  0  0  0  0  0  0  0  0  0  0
    1.2572   -2.4947   -1.2727 C   0  0  0  0  0  0  0  0  0  0  0  0
    1.7545   -3.2951   -0.2507 C   0  0  0  0  0  0  0  0  0  0  0  0
    2.8788   -2.9642    0.4528 C   0  0  0  0  0  0  0  0  0  0  0  0
    3.5198   -1.7887    0.1129 C   0  0  0  0  0  0  0  0  0  0  0  0
    4.6235   -1.2122    0.6146 N   0  0  0  0  0  0  0  0  0  0  0  0
    4.8836   -0.0606   -0.0299 C   0  0  0  0  0  0  0  0  0  0  0  0
    3.9280    0.0846   -0.9480 N   0  0  0  0  0  0  0  0  0  0  0  0
    3.0771   -0.9571   -0.8863 C   0  0  0  0  0  0  0  0  0  0  0  0
    1.9318   -1.3231   -1.5812 C   0  0  0  0  0  0  0  0  0  0  0  0
    5.9977    0.8400    0.2372 C   0  0  0  0  0  0  0  0  0  0  0  0
    6.1773    1.9942   -0.4773 C   0  0  0  0  0  0  0  0  0  0  0  0
    7.2188    2.8777   -0.2588 C   0  0  0  0  0  0  0  0  0  0  0  0
    8.1311    2.5668    0.7470 C   0  0  0  0  0  0  0  0  0  0  0  0
    9.2165    3.4215    1.0242 N   0  0  0  0  0  0  0  0  0  0  0  0
    7.9392    1.4073    1.4551 C   0  0  0  0  0  0  0  0  0  0  0  0
    6.9062    0.5334    1.2366 C   0  0  0  0  0  0  0  0  0  0  0  0
   -1.7713   -3.2789   -0.3547 C   0  0  0  0  0  0  0  0  0  0  0  0
   -2.9557   -2.8903    0.2709 C   0  0  0  0  0  0  0  0  0  0  0  0
   -3.5566   -1.6903   -0.1123 C   0  0  0  0  0  0  0  0  0  0  0  0
   -4.7031   -1.1152    0.3542 N   0  0  0  0  0  0  0  0  0  0  0  0
  -10.0130    3.6860   -0.1322 H   0  0  0  0  0  0  0  0  0  0  0  0
   -9.3776    3.9468    1.5342 H   0  0  0  0  0  0  0  0  0  0  0  0
   -8.7732    1.2504    1.7843 H   0  0  0  0  0  0  0  0  0  0  0  0
   -6.8798   -0.2798    1.4194 H   0  0  0  0  0  0  0  0  0  0  0  0
   -5.3850    2.3765   -1.5690 H   0  0  0  0  0  0  0  0  0  0  0  0
   -7.3288    3.8904   -1.1545 H   0  0  0  0  0  0  0  0  0  0  0  0
   -1.3952   -0.6688   -2.4634 H   0  0  0  0  0  0  0  0  0  0  0  0
    0.0871   -4.0593   -2.0342 H   0  0  0  0  0  0  0  0  0  0  0  0
    0.1423   -2.5991   -3.0254 H   0  0  0  0  0  0  0  0  0  0  0  0
    1.2533   -4.2280    0.0253 H   0  0  0  0  0  0  0  0  0  0  0  0
    3.2932   -3.5751    1.2623 H   0  0  0  0  0  0  0  0  0  0  0  0
    5.1981   -1.5797    1.3771 H   0  0  0  0  0  0  0  0  0  0  0  0
    1.5507   -0.6951   -2.3755 H   0  0  0  0  0  0  0  0  0  0  0  0
    5.4805    2.2668   -1.2719 H   0  0  0  0  0  0  0  0  0  0  0  0
    7.3620    3.7825   -0.8170 H   0  0  0  0  0  0  0  0  0  0  0  0
    9.5326    4.1775    0.4054 H   0  0  0  0  0  0  0  0  0  0  0  0
    9.7463    3.2889    1.9181 H   0  0  0  0  0  0  0  0  0  0  0  0
    8.6403    1.1443    2.2461 H   0  0  0  0  0  0  0  0  0  0  0  0
    6.8019   -0.3789    1.8333 H   0  0  0  0  0  0  0  0  0  0  0  0
   -1.3259   -4.2005   -0.0482 H   0  0  0  0  0  0  0  0  0  0  0  0
   -3.3715   -3.5163    1.0234 H   0  0  0  0  0  0  0  0  0  0  0  0
   -5.3014   -1.5318    1.0986 H   0  0  0  0  0  0  0  0  0  0  0  0
  1  2  1  0
  2  3  2  0
  3  4  1  0
  4  5  2  0
  5  6  1  0
  6  7  2  0
  5  8  1  0
  8  9  2  0
  9 10  1  0
 10 11  2  0
 11 12  1  0
 12 13  1  0
 13 14  1  0
 14 15  2  0
 15 16  1  0
 16 17  2  0
 17 18  1  0
 18 19  1  0
 19 20  2  0
 20 21  1  0
 21 22  2  0
 19 23  1  0
 23 24  2  0
 24 25  1  0
 25 26  2  0
 26 27  1  0
 26 28  1  0
 28 29  2  0
 12 30  2  0
 30 31  1  0
 31 32  2  0
 32 33  1  0
  7  2  1  0
 33  8  1  0
 32 10  1  0
 22 14  1  0
 21 17  1  0
 29 23  1  0
  1 34  1  0
  1 35  1  0
  3 36  1  0
  4 37  1  0
  6 38  1  0
  7 39  1  0
 11 40  1  0
 13 41  1  0
 13 42  1  0
 15 43  1  0
 16 44  1  0
 18 45  1  0
 22 46  1  0
 24 47  1  0
 25 48  1  0
 27 49  1  0
 27 50  1  0
 28 51  1  0
 29 52  1  0
 30 53  1  0
 31 54  1  0
 33 55  1  0
M  END
>  <Batch_No>  (293) 
7609381

>  <EC50_nM>  (293) 
1420

>  <Set>  (293) 
Probe-like

>  <Molecular_Weight>  (293) 
430.50378

>  <ALogP>  (293) 
5.192

$$$$
MMV019555
     RDKit          3D

 74 79  0  0  0  0  0  0  0  0999 V2000
   -0.2863   -0.6218    1.4786 C   0  0  0  0  0  0  0  0  0  0  0  0
    0.4425    0.5560    2.0245 C   0  0  0  0  0  0  0  0  0  0  0  0
    0.9706    1.5121    1.0117 C   0  0  0  0  0  0  0  0  0  0  0  0
    1.9577    0.9696    0.0428 C   0  0  0  0  0  0  0  0  0  0  0  0
    3.1644    0.4513    0.6065 N   0  0  0  0  0  0  0  0  0  0  0  0
    4.2555   -0.0750   -0.0929 C   0  0  0  0  0  0  0  0  0  0  0  0
    5.2664    0.8019   -0.4804 C   0  0  0  0  0  0  0  0  0  0  0  0
    5.2248    2.2514   -0.1823 C   0  0  0  0  0  0  0  0  0  0  0  0
    6.5478    2.5936    0.4665 C   0  0  0  0  0  0  0  0  0  0  0  0
    7.7434    2.1834   -0.3218 C   0  0  0  0  0  0  0  0  0  0  0  0
    7.3940    1.3594   -1.5412 C   0  0  0  0  0  0  0  0  0  0  0  0
    6.3746    0.3401   -1.1759 C   0  0  0  0  0  0  0  0  0  0  0  0
    6.4978   -0.9646   -1.4915 N   0  0  0  0  0  0  0  0  0  0  0  0
    5.5283   -1.8487   -1.1278 C   0  0  0  0  0  0  0  0  0  0  0  0
    5.6853   -3.1931   -1.4679 C   0  0  0  0  0  0  0  0  0  0  0  0
    4.6846   -4.0890   -1.0877 C   0  0  0  0  0  0  0  0  0  0  0  0
    3.5763   -3.6428   -0.3948 C   0  0  0  0  0  0  0  0  0  0  0  0
    3.4676   -2.3062   -0.0828 C   0  0  0  0  0  0  0  0  0  0  0  0
    4.4314   -1.3935   -0.4398 C   0  0  0  0  0  0  0  0  0  0  0  0
   -1.5044   -0.2397    0.6589 C   0  0  0  0  0  0  0  0  0  0  0  0
   -2.1087   -1.5456    0.1918 C   0  0  0  0  0  0  0  0  0  0  0  0
   -3.2856   -1.4122   -0.6061 N   0  0  0  0  0  0  0  0  0  0  0  0
   -4.4907   -0.7984   -0.1662 C   0  0  0  0  0  0  0  0  0  0  0  0
   -4.7651    0.5421   -0.3215 C   0  0  0  0  0  0  0  0  0  0  0  0
   -3.7639    1.4331   -0.9936 C   0  0  0  0  0  0  0  0  0  0  0  0
   -4.5065    2.3505   -1.9419 C   0  0  0  0  0  0  0  0  0  0  0  0
   -5.5615    3.1789   -1.2903 C   0  0  0  0  0  0  0  0  0  0  0  0
   -6.1869    2.5763   -0.0775 C   0  0  0  0  0  0  0  0  0  0  0  0
   -5.9253    1.1438    0.1025 C   0  0  0  0  0  0  0  0  0  0  0  0
   -6.8399    0.3429    0.7085 N   0  0  0  0  0  0  0  0  0  0  0  0
   -6.6034   -0.9780    0.8775 C   0  0  0  0  0  0  0  0  0  0  0  0
   -7.5410   -1.7852    1.4957 C   0  0  0  0  0  0  0  0  0  0  0  0
   -7.3138   -3.1239    1.6730 C   0  0  0  0  0  0  0  0  0  0  0  0
   -6.1410   -3.6948    1.2366 C   0  0  0  0  0  0  0  0  0  0  0  0
   -5.1916   -2.9381    0.6235 C   0  0  0  0  0  0  0  0  0  0  0  0
   -5.4396   -1.5833    0.4528 C   0  0  0  0  0  0  0  0  0  0  0  0
    0.3806   -1.2218    0.8596 H   0  0  0  0  0  0  0  0  0  0  0  0
   -0.6401   -1.2275    2.3214 H   0  0  0  0  0  0  0  0  0  0  0  0
    1.2806    0.1553    2.6431 H   0  0  0  0  0  0  0  0  0  0  0  0
   -0.2323    1.0560    2.7446 H   0  0  0  0  0  0  0  0  0  0  0  0
    1.4301    2.3662    1.5929 H   0  0  0  0  0  0  0  0  0  0  0  0
    0.1405    1.9913    0.4372 H   0  0  0  0  0  0  0  0  0  0  0  0
    2.2558    1.8161   -0.6234 H   0  0  0  0  0  0  0  0  0  0  0  0
    1.4505    0.2519   -0.6349 H   0  0  0  0  0  0  0  0  0  0  0  0
    3.2393    0.4679    1.6668 H   0  0  0  0  0  0  0  0  0  0  0  0
    5.1233    2.7610   -1.1701 H   0  0  0  0  0  0  0  0  0  0  0  0
    4.4215    2.5308    0.5026 H   0  0  0  0  0  0  0  0  0  0  0  0
    6.5620    2.0379    1.4344 H   0  0  0  0  0  0  0  0  0  0  0  0
    6.5386    3.7028    0.6480 H   0  0  0  0  0  0  0  0  0  0  0  0
    8.3389    3.0735   -0.6111 H   0  0  0  0  0  0  0  0  0  0  0  0
    8.4548    1.5478    0.2702 H   0  0  0  0  0  0  0  0  0  0  0  0
    8.2849    0.8183   -1.9221 H   0  0  0  0  0  0  0  0  0  0  0  0
    7.0276    1.9809   -2.3760 H   0  0  0  0  0  0  0  0  0  0  0  0
    6.5517   -3.5307   -2.0075 H   0  0  0  0  0  0  0  0  0  0  0  0
    4.8044   -5.1363   -1.3513 H   0  0  0  0  0  0  0  0  0  0  0  0
    2.7905   -4.3260   -0.0922 H   0  0  0  0  0  0  0  0  0  0  0  0
    2.6047   -1.9527    0.4599 H   0  0  0  0  0  0  0  0  0  0  0  0
   -2.2026    0.3813    1.2390 H   0  0  0  0  0  0  0  0  0  0  0  0
   -1.1876    0.3698   -0.2374 H   0  0  0  0  0  0  0  0  0  0  0  0
   -1.3115   -2.0246   -0.4339 H   0  0  0  0  0  0  0  0  0  0  0  0
   -2.3029   -2.1312    1.1144 H   0  0  0  0  0  0  0  0  0  0  0  0
   -3.3155   -1.7806   -1.6057 H   0  0  0  0  0  0  0  0  0  0  0  0
   -3.1175    1.9721   -0.3034 H   0  0  0  0  0  0  0  0  0  0  0  0
   -3.1208    0.7909   -1.6350 H   0  0  0  0  0  0  0  0  0  0  0  0
   -4.9096    1.7984   -2.8090 H   0  0  0  0  0  0  0  0  0  0  0  0
   -3.7372    3.0397   -2.3734 H   0  0  0  0  0  0  0  0  0  0  0  0
   -6.3770    3.3261   -2.0397 H   0  0  0  0  0  0  0  0  0  0  0  0
   -5.1472    4.1815   -1.0442 H   0  0  0  0  0  0  0  0  0  0  0  0
   -7.2953    2.7138   -0.0652 H   0  0  0  0  0  0  0  0  0  0  0  0
   -5.8281    3.0996    0.8527 H   0  0  0  0  0  0  0  0  0  0  0  0
   -8.4756   -1.3641    1.8506 H   0  0  0  0  0  0  0  0  0  0  0  0
   -8.0278   -3.7861    2.1538 H   0  0  0  0  0  0  0  0  0  0  0  0
   -5.9559   -4.7528    1.3740 H   0  0  0  0  0  0  0  0  0  0  0  0
   -4.2533   -3.3486    0.2644 H   0  0  0  0  0  0  0  0  0  0  0  0
  1  2  1  0
  2  3  1  0
  3  4  1  0
  4  5  1  0
  5  6  1  0
  6  7  2  0
  7  8  1  0
  8  9  1  0
  9 10  1  0
 10 11  1  0
 11 12  1  0
 12 13  2  0
 13 14  1  0
 14 15  2  0
 15 16  1  0
 16 17  2  0
 17 18  1  0
 18 19  2  0
  1 20  1  0
 20 21  1  0
 21 22  1  0
 22 23  1  0
 23 24  2  0
 24 25  1  0
 25 26  1  0
 26 27  1  0
 27 28  1  0
 28 29  1  0
 29 30  2  0
 30 31  1  0
 31 32  2  0
 32 33  1  0
 33 34  2  0
 34 35  1  0
 35 36  2  0
 19  6  1  0
 12  7  1  0
 19 14  1  0
 36 23  1  0
 29 24  1  0
 36 31  1  0
  1 37  1  0
  1 38  1  0
  2 39  1  0
  2 40  1  0
  3 41  1  0
  3 42  1  0
  4 43  1  0
  4 44  1  0
  5 45  1  0
  8 46  1  0
  8 47  1  0
  9 48  1  0
  9 49  1  0
 10 50  1  0
 10 51  1  0
 11 52  1  0
 11 53  1  0
 15 54  1  0
 16 55  1  0
 17 56  1  0
 18 57  1  0
 20 58  1  0
 20 59  1  0
 21 60  1  0
 21 61  1  0
 22 62  1  0
 25 63  1  0
 25 64  1  0
 26 65  1  0
 26 66  1  0
 27 67  1  0
 27 68  1  0
 28 69  1  0
 28 70  1  0
 32 71  1  0
 33 72  1  0
 34 73  1  0
 35 74  1  0
M  END
>  <Batch_No>  (294) 
6262-0146

>  <EC50_nM>  (294) 
376

>  <Set>  (294) 
Probe-like

>  <Molecular_Weight>  (294) 
478.67091

>  <ALogP>  (294) 
8.063

$$$$
MMV019741
     RDKit          3D

 63 67  0  0  0  0  0  0  0  0999 V2000
   -3.1304   -3.8553    0.2632 C   0  0  0  0  0  0  0  0  0  0  0  0
   -3.7330   -2.4754    0.3252 C   0  0  0  0  0  0  0  0  0  0  0  0
   -4.8128   -2.2512    1.1523 C   0  0  0  0  0  0  0  0  0  0  0  0
   -5.3303   -0.9744    1.1771 C   0  0  0  0  0  0  0  0  0  0  0  0
   -4.7855    0.0525    0.3976 C   0  0  0  0  0  0  0  0  0  0  0  0
   -5.4128    1.3880    0.4684 C   0  0  0  0  0  0  0  0  0  0  0  0
   -3.7196   -0.1563   -0.4218 C   0  0  0  0  0  0  0  0  0  0  0  0
   -3.0321    0.7994   -1.2789 C   0  0  0  0  0  0  0  0  0  0  0  0
   -2.1060    1.6998   -0.6739 N   0  0  0  0  0  0  0  0  0  0  0  0
   -0.8184    1.3427   -0.3899 C   0  0  0  0  0  0  0  0  0  0  0  0
   -0.1657    2.4195    0.1345 N   0  0  0  0  0  0  0  0  0  0  0  0
   -1.0043    3.4601    0.1936 C   0  0  0  0  0  0  0  0  0  0  0  0
   -0.8132    4.7450    0.6273 C   0  0  0  0  0  0  0  0  0  0  0  0
   -1.8638    5.6208    0.5553 C   0  0  0  0  0  0  0  0  0  0  0  0
   -3.0734    5.1857    0.0520 C   0  0  0  0  0  0  0  0  0  0  0  0
   -3.2334    3.9029   -0.3708 C   0  0  0  0  0  0  0  0  0  0  0  0
   -2.2031    2.9896   -0.3145 C   0  0  0  0  0  0  0  0  0  0  0  0
   -0.1693    0.0978   -0.5447 N   0  0  0  0  0  0  0  0  0  0  0  0
   -0.0175   -0.7726    0.6337 C   0  0  0  0  0  0  0  0  0  0  0  0
    1.4655   -0.9510    0.9351 C   0  0  0  0  0  0  0  0  0  0  0  0
    2.2724   -0.8787   -0.3484 C   0  0  0  0  0  0  0  0  0  0  0  0
    1.4931   -1.4037   -1.5198 C   0  0  0  0  0  0  0  0  0  0  0  0
    0.3777   -0.4061   -1.7831 C   0  0  0  0  0  0  0  0  0  0  0  0
    3.5923   -1.5322   -0.2168 C   0  0  0  0  0  0  0  0  0  0  0  0
    3.8844   -2.0180    0.9057 O   0  0  0  0  0  0  0  0  0  0  0  0
    4.4722   -1.5932   -1.3254 N   0  0  0  0  0  0  0  0  0  0  0  0
    5.7840   -2.2037   -1.2886 C   0  0  0  0  0  0  0  0  0  0  0  0
    6.6066   -1.5061   -0.3326 C   0  0  0  0  0  0  0  0  0  0  0  0
    6.9242   -1.6194    0.9776 C   0  0  0  0  0  0  0  0  0  0  0  0
    7.7464   -0.7422    1.5590 C   0  0  0  0  0  0  0  0  0  0  0  0
    8.2528    0.2836    0.7479 C   0  0  0  0  0  0  0  0  0  0  0  0
    7.5166   -0.0336   -0.8991 S   0  0  0  0  0  0  0  0  0  0  0  0
   -3.2115   -1.4724   -0.4270 C   0  0  0  0  0  0  0  0  0  0  0  0
   -2.0500   -3.8413    0.0988 H   0  0  0  0  0  0  0  0  0  0  0  0
   -3.4616   -4.4163    1.1518 H   0  0  0  0  0  0  0  0  0  0  0  0
   -3.6230   -4.3251   -0.6361 H   0  0  0  0  0  0  0  0  0  0  0  0
   -5.1984   -3.0740    1.7354 H   0  0  0  0  0  0  0  0  0  0  0  0
   -6.1841   -0.7622    1.8195 H   0  0  0  0  0  0  0  0  0  0  0  0
   -4.8726    2.0824    1.1169 H   0  0  0  0  0  0  0  0  0  0  0  0
   -6.4342    1.2919    0.9466 H   0  0  0  0  0  0  0  0  0  0  0  0
   -5.6516    1.7747   -0.5500 H   0  0  0  0  0  0  0  0  0  0  0  0
   -3.8293    1.3377   -1.8609 H   0  0  0  0  0  0  0  0  0  0  0  0
   -2.4615    0.2587   -2.0883 H   0  0  0  0  0  0  0  0  0  0  0  0
    0.1526    5.0600    1.0194 H   0  0  0  0  0  0  0  0  0  0  0  0
   -1.7604    6.6544    0.8890 H   0  0  0  0  0  0  0  0  0  0  0  0
   -3.8793    5.9072    0.0103 H   0  0  0  0  0  0  0  0  0  0  0  0
   -4.1790    3.5961   -0.7736 H   0  0  0  0  0  0  0  0  0  0  0  0
   -0.4804   -0.3100    1.5223 H   0  0  0  0  0  0  0  0  0  0  0  0
   -0.5023   -1.7522    0.4717 H   0  0  0  0  0  0  0  0  0  0  0  0
    1.7622   -0.1776    1.6706 H   0  0  0  0  0  0  0  0  0  0  0  0
    1.5832   -1.9335    1.4077 H   0  0  0  0  0  0  0  0  0  0  0  0
    2.3973    0.2306   -0.5319 H   0  0  0  0  0  0  0  0  0  0  0  0
    2.1417   -1.4107   -2.4133 H   0  0  0  0  0  0  0  0  0  0  0  0
    1.0955   -2.4249   -1.3538 H   0  0  0  0  0  0  0  0  0  0  0  0
   -0.3739   -0.8312   -2.4736 H   0  0  0  0  0  0  0  0  0  0  0  0
    0.8617    0.4369   -2.3493 H   0  0  0  0  0  0  0  0  0  0  0  0
    4.1455   -1.1672   -2.2194 H   0  0  0  0  0  0  0  0  0  0  0  0
    5.7046   -3.2766   -0.9583 H   0  0  0  0  0  0  0  0  0  0  0  0
    6.2286   -2.2202   -2.2822 H   0  0  0  0  0  0  0  0  0  0  0  0
    6.4859   -2.4718    1.5734 H   0  0  0  0  0  0  0  0  0  0  0  0
    8.0562   -0.7596    2.6191 H   0  0  0  0  0  0  0  0  0  0  0  0
    8.9268    1.1073    0.9720 H   0  0  0  0  0  0  0  0  0  0  0  0
   -2.3524   -1.7256   -1.0617 H   0  0  0  0  0  0  0  0  0  0  0  0
  1  2  1  0
  2  3  2  0
  3  4  1  0
  4  5  2  0
  5  6  1  0
  5  7  1  0
  7  8  1  0
  8  9  1  0
  9 10  1  0
 10 11  2  0
 11 12  1  0
 12 13  2  0
 13 14  1  0
 14 15  2  0
 15 16  1  0
 16 17  2  0
 10 18  1  0
 18 19  1  0
 19 20  1  0
 20 21  1  0
 21 22  1  0
 22 23  1  0
 21 24  1  0
 24 25  2  0
 24 26  1  0
 26 27  1  0
 27 28  1  0
 28 29  2  0
 29 30  1  0
 30 31  2  0
 31 32  1  0
  7 33  2  0
 33  2  1  0
 17  9  1  0
 17 12  1  0
 23 18  1  0
 32 28  1  0
  1 34  1  0
  1 35  1  0
  1 36  1  0
  3 37  1  0
  4 38  1  0
  6 39  1  0
  6 40  1  0
  6 41  1  0
  8 42  1  0
  8 43  1  0
 13 44  1  0
 14 45  1  0
 15 46  1  0
 16 47  1  0
 19 48  1  0
 19 49  1  0
 20 50  1  0
 20 51  1  0
 21 52  1  0
 22 53  1  0
 22 54  1  0
 23 55  1  0
 23 56  1  0
 26 57  1  0
 27 58  1  0
 27 59  1  0
 29 60  1  0
 30 61  1  0
 31 62  1  0
 33 63  1  0
M  END
>  <Batch_No>  (295) 
C776-3796

>  <EC50_nM>  (295) 
1330

>  <Set>  (295) 
Probe-like

>  <Molecular_Weight>  (295) 
458.61829

>  <ALogP>  (295) 
5.194

$$$$
MMV019690
     RDKit          3D

 66 71  0  0  0  0  0  0  0  0999 V2000
   -1.3306    2.8516   -3.2178 C   0  0  0  0  0  0  0  0  0  0  0  0
   -1.1146    2.4784   -1.8698 O   0  0  0  0  0  0  0  0  0  0  0  0
   -0.1615    1.5104   -1.5923 C   0  0  0  0  0  0  0  0  0  0  0  0
    0.5763    0.9104   -2.6175 C   0  0  0  0  0  0  0  0  0  0  0  0
    1.5168   -0.0403   -2.3747 C   0  0  0  0  0  0  0  0  0  0  0  0
    1.7386   -0.4150   -1.0655 C   0  0  0  0  0  0  0  0  0  0  0  0
    1.0220    0.1639   -0.0392 C   0  0  0  0  0  0  0  0  0  0  0  0
    0.0525    1.1438   -0.2855 C   0  0  0  0  0  0  0  0  0  0  0  0
   -0.6476    1.6906    0.8769 C   0  0  0  0  0  0  0  0  0  0  0  0
   -1.9628    1.2366    1.1136 N   0  0  0  0  0  0  0  0  0  0  0  0
   -2.0832   -0.1643    1.2626 C   0  0  0  0  0  0  0  0  0  0  0  0
   -3.4869   -0.6592    1.3370 C   0  0  0  0  0  0  0  0  0  0  0  0
   -4.3210   -0.0267    0.3319 N   0  0  0  0  0  0  0  0  0  0  0  0
   -3.7678    1.0531   -0.4589 C   0  0  0  0  0  0  0  0  0  0  0  0
   -3.0464    1.9464    0.5528 C   0  0  0  0  0  0  0  0  0  0  0  0
   -5.6438   -0.5173    0.1915 C   0  0  0  0  0  0  0  0  0  0  0  0
   -6.0563   -1.5378    1.0136 C   0  0  0  0  0  0  0  0  0  0  0  0
   -7.3538   -2.0535    0.9119 C   0  0  0  0  0  0  0  0  0  0  0  0
   -8.2537   -1.5560   -0.0122 C   0  0  0  0  0  0  0  0  0  0  0  0
   -9.5251   -2.0478   -0.1256 F   0  0  0  0  0  0  0  0  0  0  0  0
   -7.8421   -0.5340   -0.8369 C   0  0  0  0  0  0  0  0  0  0  0  0
   -6.5542   -0.0359   -0.7218 C   0  0  0  0  0  0  0  0  0  0  0  0
    2.7635   -1.4598   -0.7031 C   0  0  0  0  0  0  0  0  0  0  0  0
    2.2719   -2.4034    0.2387 N   0  0  0  0  0  0  0  0  0  0  0  0
    2.9372   -2.5027    1.4858 C   0  0  0  0  0  0  0  0  0  0  0  0
    4.4443   -2.5362    1.3726 C   0  0  0  0  0  0  0  0  0  0  0  0
    4.8741   -1.2985    0.6696 C   0  0  0  0  0  0  0  0  0  0  0  0
    4.0424   -0.8187   -0.3145 C   0  0  0  0  0  0  0  0  0  0  0  0
    4.6060    0.2930   -0.8188 N   0  0  0  0  0  0  0  0  0  0  0  0
    5.7653    0.5168   -0.1746 C   0  0  0  0  0  0  0  0  0  0  0  0
    6.7089    1.5139   -0.3138 C   0  0  0  0  0  0  0  0  0  0  0  0
    7.8320    1.4956    0.5023 C   0  0  0  0  0  0  0  0  0  0  0  0
    8.0248    0.5069    1.4456 C   0  0  0  0  0  0  0  0  0  0  0  0
    7.0872   -0.4930    1.5916 C   0  0  0  0  0  0  0  0  0  0  0  0
    5.9762   -0.4669    0.7777 C   0  0  0  0  0  0  0  0  0  0  0  0
   -0.4176    3.3766   -3.6019 H   0  0  0  0  0  0  0  0  0  0  0  0
   -2.2279    3.4957   -3.2508 H   0  0  0  0  0  0  0  0  0  0  0  0
   -1.5411    1.9766   -3.8819 H   0  0  0  0  0  0  0  0  0  0  0  0
    0.3926    1.2124   -3.6333 H   0  0  0  0  0  0  0  0  0  0  0  0
    2.1101   -0.5290   -3.1489 H   0  0  0  0  0  0  0  0  0  0  0  0
    1.2176   -0.1516    0.9918 H   0  0  0  0  0  0  0  0  0  0  0  0
   -0.6967    2.8184    0.7890 H   0  0  0  0  0  0  0  0  0  0  0  0
   -0.0710    1.5342    1.8325 H   0  0  0  0  0  0  0  0  0  0  0  0
   -1.5899   -0.4499    2.2348 H   0  0  0  0  0  0  0  0  0  0  0  0
   -1.5174   -0.7215    0.4872 H   0  0  0  0  0  0  0  0  0  0  0  0
   -3.9252   -0.5906    2.3531 H   0  0  0  0  0  0  0  0  0  0  0  0
   -3.4782   -1.7575    1.1051 H   0  0  0  0  0  0  0  0  0  0  0  0
   -4.4872    1.6113   -1.0523 H   0  0  0  0  0  0  0  0  0  0  0  0
   -2.9745    0.5847   -1.1104 H   0  0  0  0  0  0  0  0  0  0  0  0
   -2.8364    2.9457    0.1904 H   0  0  0  0  0  0  0  0  0  0  0  0
   -3.8119    2.0805    1.3763 H   0  0  0  0  0  0  0  0  0  0  0  0
   -5.4262   -1.9931    1.7667 H   0  0  0  0  0  0  0  0  0  0  0  0
   -7.6898   -2.8634    1.5596 H   0  0  0  0  0  0  0  0  0  0  0  0
   -8.5325   -0.1268   -1.5708 H   0  0  0  0  0  0  0  0  0  0  0  0
   -6.2862    0.7614   -1.3907 H   0  0  0  0  0  0  0  0  0  0  0  0
    2.9520   -2.0255   -1.6426 H   0  0  0  0  0  0  0  0  0  0  0  0
    1.2591   -2.4232    0.4011 H   0  0  0  0  0  0  0  0  0  0  0  0
    2.6448   -1.7845    2.2613 H   0  0  0  0  0  0  0  0  0  0  0  0
    2.6654   -3.5101    1.9134 H   0  0  0  0  0  0  0  0  0  0  0  0
    4.8310   -3.4425    0.8645 H   0  0  0  0  0  0  0  0  0  0  0  0
    4.8307   -2.5795    2.4164 H   0  0  0  0  0  0  0  0  0  0  0  0
    4.2498    0.9129   -1.5792 H   0  0  0  0  0  0  0  0  0  0  0  0
    6.5833    2.3048   -1.0475 H   0  0  0  0  0  0  0  0  0  0  0  0
    8.5545    2.3063    0.3589 H   0  0  0  0  0  0  0  0  0  0  0  0
    8.9150    0.5610    2.0372 H   0  0  0  0  0  0  0  0  0  0  0  0
    7.2153   -1.2785    2.3227 H   0  0  0  0  0  0  0  0  0  0  0  0
  1  2  1  0
  2  3  1  0
  3  4  2  0
  4  5  1  0
  5  6  2  0
  6  7  1  0
  7  8  2  0
  8  9  1  0
  9 10  1  0
 10 11  1  0
 11 12  1  0
 12 13  1  0
 13 14  1  0
 14 15  1  0
 13 16  1  0
 16 17  2  0
 17 18  1  0
 18 19  2  0
 19 20  1  0
 19 21  1  0
 21 22  2  0
  6 23  1  0
 23 24  1  0
 24 25  1  0
 25 26  1  0
 26 27  1  0
 27 28  2  0
 28 29  1  0
 29 30  1  0
 30 31  2  0
 31 32  1  0
 32 33  2  0
 33 34  1  0
 34 35  2  0
  8  3  1  0
 15 10  1  0
 22 16  1  0
 28 23  1  0
 35 27  1  0
 35 30  1  0
  1 36  1  0
  1 37  1  0
  1 38  1  0
  4 39  1  0
  5 40  1  0
  7 41  1  0
  9 42  1  0
  9 43  1  0
 11 44  1  0
 11 45  1  0
 12 46  1  0
 12 47  1  0
 14 48  1  0
 14 49  1  0
 15 50  1  0
 15 51  1  0
 17 52  1  0
 18 53  1  0
 21 54  1  0
 22 55  1  0
 23 56  1  0
 24 57  1  0
 25 58  1  0
 25 59  1  0
 26 60  1  0
 26 61  1  0
 29 62  1  0
 31 63  1  0
 32 64  1  0
 33 65  1  0
 34 66  1  0
M  END
>  <Batch_No>  (296) 
8207-0953

>  <EC50_nM>  (296) 
934.5

>  <Set>  (296) 
Probe-like

>  <Molecular_Weight>  (296) 
470.58104

>  <ALogP>  (296) 
5.424

$$$$
MMV000621
     RDKit          3D

 63 65  0  0  0  0  0  0  0  0999 V2000
    4.4912   -3.1997   -0.1143 C   0  0  0  0  0  0  0  0  0  0  0  0
    4.3436   -1.7695    0.3725 C   0  0  0  0  0  0  0  0  0  0  0  0
    3.6075   -1.7802    1.6923 C   0  0  0  0  0  0  0  0  0  0  0  0
    3.4493   -0.3764    2.2081 C   0  0  0  0  0  0  0  0  0  0  0  0
    2.6865    0.5436    1.3025 C   0  0  0  0  0  0  0  0  0  0  0  0
    1.2953   -0.0185    1.0939 C   0  0  0  0  0  0  0  0  0  0  0  0
    0.4754    0.8972    0.1856 C   0  0  0  0  0  0  0  0  0  0  0  0
    1.1842    0.9420   -1.0143 O   0  0  0  0  0  0  0  0  0  0  0  0
   -0.8536    0.2788   -0.0619 C   0  0  0  0  0  0  0  0  0  0  0  0
   -0.7781   -1.0725   -0.7339 C   0  0  0  0  0  0  0  0  0  0  0  0
   -2.1342   -1.5595   -0.9157 N   0  0  0  0  0  0  0  0  0  0  0  0
   -2.7830   -1.8889    0.3186 C   0  0  0  0  0  0  0  0  0  0  0  0
   -3.9756   -2.7938    0.0499 C   0  0  0  0  0  0  0  0  0  0  0  0
   -3.5723   -4.0407   -0.4050 O   0  0  0  0  0  0  0  0  0  0  0  0
   -2.4025   -3.9970   -1.1212 C   0  0  0  0  0  0  0  0  0  0  0  0
   -2.1718   -2.6755   -1.8140 C   0  0  0  0  0  0  0  0  0  0  0  0
   -1.6707    1.1564   -0.9604 C   0  0  0  0  0  0  0  0  0  0  0  0
   -1.2835    1.3996   -2.2752 C   0  0  0  0  0  0  0  0  0  0  0  0
   -2.0332    2.2139   -3.1048 C   0  0  0  0  0  0  0  0  0  0  0  0
   -3.1947    2.8154   -2.6565 C   0  0  0  0  0  0  0  0  0  0  0  0
   -3.5968    2.5848   -1.3490 C   0  0  0  0  0  0  0  0  0  0  0  0
   -2.8334    1.7696   -0.5409 C   0  0  0  0  0  0  0  0  0  0  0  0
    0.4293    2.2712    0.6886 C   0  0  0  0  0  0  0  0  0  0  0  0
   -0.5523    2.6230    1.5733 C   0  0  0  0  0  0  0  0  0  0  0  0
   -0.6875    3.8929    2.1079 C   0  0  0  0  0  0  0  0  0  0  0  0
    0.2129    4.8682    1.7346 C   0  0  0  0  0  0  0  0  0  0  0  0
    0.0535    6.0926    2.2728 F   0  0  0  0  0  0  0  0  0  0  0  0
    1.2137    4.5411    0.8431 C   0  0  0  0  0  0  0  0  0  0  0  0
    1.3328    3.2599    0.3176 C   0  0  0  0  0  0  0  0  0  0  0  0
    5.2578   -3.2527   -0.9389 H   0  0  0  0  0  0  0  0  0  0  0  0
    4.7587   -3.8613    0.7205 H   0  0  0  0  0  0  0  0  0  0  0  0
    3.5429   -3.5563   -0.5665 H   0  0  0  0  0  0  0  0  0  0  0  0
    3.6917   -1.2512   -0.3788 H   0  0  0  0  0  0  0  0  0  0  0  0
    5.2879   -1.2147    0.3944 H   0  0  0  0  0  0  0  0  0  0  0  0
    2.6111   -2.2222    1.5325 H   0  0  0  0  0  0  0  0  0  0  0  0
    4.1898   -2.4066    2.4372 H   0  0  0  0  0  0  0  0  0  0  0  0
    4.4925    0.0034    2.3638 H   0  0  0  0  0  0  0  0  0  0  0  0
    3.0044   -0.3708    3.2430 H   0  0  0  0  0  0  0  0  0  0  0  0
    3.2037    0.5767    0.3219 H   0  0  0  0  0  0  0  0  0  0  0  0
    2.6577    1.5419    1.7900 H   0  0  0  0  0  0  0  0  0  0  0  0
    1.4706   -0.9510    0.4774 H   0  0  0  0  0  0  0  0  0  0  0  0
    0.8149   -0.2318    2.0465 H   0  0  0  0  0  0  0  0  0  0  0  0
    1.7009    0.1473   -1.2208 H   0  0  0  0  0  0  0  0  0  0  0  0
   -1.4630    0.1493    0.8575 H   0  0  0  0  0  0  0  0  0  0  0  0
   -0.3399   -1.0245   -1.7469 H   0  0  0  0  0  0  0  0  0  0  0  0
   -0.2665   -1.8315   -0.0869 H   0  0  0  0  0  0  0  0  0  0  0  0
   -3.1636   -0.9882    0.8479 H   0  0  0  0  0  0  0  0  0  0  0  0
   -2.0843   -2.4580    0.9597 H   0  0  0  0  0  0  0  0  0  0  0  0
   -4.4992   -2.9455    1.0164 H   0  0  0  0  0  0  0  0  0  0  0  0
   -4.6359   -2.2900   -0.6974 H   0  0  0  0  0  0  0  0  0  0  0  0
   -2.4485   -4.7800   -1.9042 H   0  0  0  0  0  0  0  0  0  0  0  0
   -1.5581   -4.2889   -0.4517 H   0  0  0  0  0  0  0  0  0  0  0  0
   -1.2088   -2.7293   -2.3578 H   0  0  0  0  0  0  0  0  0  0  0  0
   -2.9578   -2.5789   -2.5909 H   0  0  0  0  0  0  0  0  0  0  0  0
   -0.3974    0.9679   -2.6986 H   0  0  0  0  0  0  0  0  0  0  0  0
   -1.6990    2.3835   -4.1335 H   0  0  0  0  0  0  0  0  0  0  0  0
   -3.7908    3.4590   -3.3052 H   0  0  0  0  0  0  0  0  0  0  0  0
   -4.5019    3.0474   -0.9815 H   0  0  0  0  0  0  0  0  0  0  0  0
   -3.1896    1.6220    0.4688 H   0  0  0  0  0  0  0  0  0  0  0  0
   -1.2826    1.8947    1.8995 H   0  0  0  0  0  0  0  0  0  0  0  0
   -1.4813    4.1230    2.8059 H   0  0  0  0  0  0  0  0  0  0  0  0
    1.9073    5.3256    0.5663 H   0  0  0  0  0  0  0  0  0  0  0  0
    2.1247    3.0140   -0.3839 H   0  0  0  0  0  0  0  0  0  0  0  0
  1  2  1  0
  2  3  1  0
  3  4  1  0
  4  5  1  0
  5  6  1  0
  6  7  1  0
  7  8  1  0
  7  9  1  0
  9 10  1  0
 10 11  1  0
 11 12  1  0
 12 13  1  0
 13 14  1  0
 14 15  1  0
 15 16  1  0
  9 17  1  0
 17 18  2  0
 18 19  1  0
 19 20  2  0
 20 21  1  0
 21 22  2  0
  7 23  1  0
 23 24  2  0
 24 25  1  0
 25 26  2  0
 26 27  1  0
 26 28  1  0
 28 29  2  0
 16 11  1  0
 22 17  1  0
 29 23  1  0
  1 30  1  0
  1 31  1  0
  1 32  1  0
  2 33  1  0
  2 34  1  0
  3 35  1  0
  3 36  1  0
  4 37  1  0
  4 38  1  0
  5 39  1  0
  5 40  1  0
  6 41  1  0
  6 42  1  0
  8 43  1  0
  9 44  1  0
 10 45  1  0
 10 46  1  0
 12 47  1  0
 12 48  1  0
 13 49  1  0
 13 50  1  0
 15 51  1  0
 15 52  1  0
 16 53  1  0
 16 54  1  0
 18 55  1  0
 19 56  1  0
 20 57  1  0
 21 58  1  0
 22 59  1  0
 24 60  1  0
 25 61  1  0
 28 62  1  0
 29 63  1  0
M  END
>  <Batch_No>  (297) 
D173-0049

>  <EC50_nM>  (297) 
ND

>  <Set>  (297) 
Probe-like

>  <Molecular_Weight>  (297) 
399.54136

>  <ALogP>  (297) 
5.382

$$$$
MMV008173
     RDKit          3D

 62 65  0  0  0  0  0  0  0  0999 V2000
   -4.3821    4.1346    3.1115 C   0  0  0  0  0  0  0  0  0  0  0  0
   -3.4655    3.0972    2.8148 O   0  0  0  0  0  0  0  0  0  0  0  0
   -3.7824    2.0121    2.0262 C   0  0  0  0  0  0  0  0  0  0  0  0
   -5.0348    1.8329    1.4459 C   0  0  0  0  0  0  0  0  0  0  0  0
   -5.3009    0.7282    0.6641 C   0  0  0  0  0  0  0  0  0  0  0  0
   -6.5281    0.4956    0.0604 O   0  0  0  0  0  0  0  0  0  0  0  0
   -7.5605    1.4374    0.2547 C   0  0  0  0  0  0  0  0  0  0  0  0
   -4.3030   -0.2051    0.4622 C   0  0  0  0  0  0  0  0  0  0  0  0
   -3.0361   -0.0512    1.0323 C   0  0  0  0  0  0  0  0  0  0  0  0
   -2.7973    1.0681    1.8128 C   0  0  0  0  0  0  0  0  0  0  0  0
   -2.0883   -1.0365    0.7794 N   0  0  0  0  0  0  0  0  0  0  0  0
   -1.2331   -0.9258   -0.3435 C   0  0  0  0  0  0  0  0  0  0  0  0
   -1.3773    0.1310   -1.0385 O   0  0  0  0  0  0  0  0  0  0  0  0
   -0.2619   -1.8829   -0.7315 N   0  0  0  0  0  0  0  0  0  0  0  0
    0.5269   -1.5809   -1.9103 C   0  0  0  0  0  0  0  0  0  0  0  0
    1.7210   -0.7395   -1.6481 C   0  0  0  0  0  0  0  0  0  0  0  0
    1.6563    0.6443   -1.8257 C   0  0  0  0  0  0  0  0  0  0  0  0
    2.7658    1.4585   -1.5731 C   0  0  0  0  0  0  0  0  0  0  0  0
    3.9651    0.9437   -1.1420 C   0  0  0  0  0  0  0  0  0  0  0  0
    4.0355   -0.4166   -0.9660 C   0  0  0  0  0  0  0  0  0  0  0  0
    2.9300   -1.2315   -1.2169 C   0  0  0  0  0  0  0  0  0  0  0  0
    5.1546    1.7576   -0.8646 C   0  0  0  0  0  0  0  0  0  0  0  0
    4.9497    3.2202   -1.0951 C   0  0  0  0  0  0  0  0  0  0  0  0
    5.6433    1.5345    0.5724 C   0  0  0  0  0  0  0  0  0  0  0  0
    6.2860    1.2842   -1.7525 C   0  0  0  0  0  0  0  0  0  0  0  0
   -0.0446   -3.1019    0.0024 C   0  0  0  0  0  0  0  0  0  0  0  0
    0.8822   -4.0270   -0.4300 C   0  0  0  0  0  0  0  0  0  0  0  0
    1.1030   -5.2377    0.2341 C   0  0  0  0  0  0  0  0  0  0  0  0
    0.3855   -5.5468    1.3619 C   0  0  0  0  0  0  0  0  0  0  0  0
   -0.5377   -4.6233    1.7902 C   0  0  0  0  0  0  0  0  0  0  0  0
   -0.7572   -3.4259    1.1355 C   0  0  0  0  0  0  0  0  0  0  0  0
   -1.9703   -2.3792    1.8379 S   0  0  0  0  0  0  0  0  0  0  0  0
   -3.2561   -3.1009    2.0578 O   0  0  0  0  0  0  0  0  0  0  0  0
   -1.5071   -1.9634    3.2273 O   0  0  0  0  0  0  0  0  0  0  0  0
   -5.0459    3.8551    3.9654 H   0  0  0  0  0  0  0  0  0  0  0  0
   -3.7588    5.0244    3.3708 H   0  0  0  0  0  0  0  0  0  0  0  0
   -5.0679    4.3564    2.2710 H   0  0  0  0  0  0  0  0  0  0  0  0
   -5.8066    2.5698    1.6113 H   0  0  0  0  0  0  0  0  0  0  0  0
   -7.3899    2.3067   -0.4316 H   0  0  0  0  0  0  0  0  0  0  0  0
   -8.5587    0.9788    0.0023 H   0  0  0  0  0  0  0  0  0  0  0  0
   -7.6664    1.8041    1.2766 H   0  0  0  0  0  0  0  0  0  0  0  0
   -4.5087   -1.0867   -0.1592 H   0  0  0  0  0  0  0  0  0  0  0  0
   -1.7979    1.1631    2.2463 H   0  0  0  0  0  0  0  0  0  0  0  0
   -0.1773   -1.0124   -2.6011 H   0  0  0  0  0  0  0  0  0  0  0  0
    0.8382   -2.4579   -2.4682 H   0  0  0  0  0  0  0  0  0  0  0  0
    0.7861    1.1582   -2.1674 H   0  0  0  0  0  0  0  0  0  0  0  0
    2.7128    2.5388   -1.7121 H   0  0  0  0  0  0  0  0  0  0  0  0
    4.9842   -0.8555   -0.6216 H   0  0  0  0  0  0  0  0  0  0  0  0
    3.0989   -2.2821   -1.0469 H   0  0  0  0  0  0  0  0  0  0  0  0
    4.5472    3.3390   -2.1305 H   0  0  0  0  0  0  0  0  0  0  0  0
    4.3373    3.7104   -0.3381 H   0  0  0  0  0  0  0  0  0  0  0  0
    5.9584    3.6859   -1.1208 H   0  0  0  0  0  0  0  0  0  0  0  0
    6.1709    0.5747    0.5635 H   0  0  0  0  0  0  0  0  0  0  0  0
    4.7503    1.5589    1.2070 H   0  0  0  0  0  0  0  0  0  0  0  0
    6.3197    2.3987    0.7885 H   0  0  0  0  0  0  0  0  0  0  0  0
    6.3371    0.1784   -1.7481 H   0  0  0  0  0  0  0  0  0  0  0  0
    6.1141    1.7038   -2.7571 H   0  0  0  0  0  0  0  0  0  0  0  0
    7.2328    1.7108   -1.3167 H   0  0  0  0  0  0  0  0  0  0  0  0
    1.4893   -3.8918   -1.3136 H   0  0  0  0  0  0  0  0  0  0  0  0
    1.8387   -5.9499   -0.1254 H   0  0  0  0  0  0  0  0  0  0  0  0
    0.5798   -6.4894    1.8512 H   0  0  0  0  0  0  0  0  0  0  0  0
   -1.0983   -4.8943    2.6937 H   0  0  0  0  0  0  0  0  0  0  0  0
  1  2  1  0
  2  3  1  0
  3  4  2  0
  4  5  1  0
  5  6  1  0
  6  7  1  0
  5  8  2  0
  8  9  1  0
  9 10  2  0
  9 11  1  0
 11 12  1  0
 12 13  2  0
 12 14  1  0
 14 15  1  0
 15 16  1  0
 16 17  2  0
 17 18  1  0
 18 19  2  0
 19 20  1  0
 20 21  2  0
 19 22  1  0
 22 23  1  0
 22 24  1  0
 22 25  1  0
 14 26  1  0
 26 27  2  0
 27 28  1  0
 28 29  2  0
 29 30  1  0
 30 31  2  0
 31 32  1  0
 32 33  2  0
 32 34  2  0
 10  3  1  0
 32 11  1  0
 21 16  1  0
 31 26  1  0
  1 35  1  0
  1 36  1  0
  1 37  1  0
  4 38  1  0
  7 39  1  0
  7 40  1  0
  7 41  1  0
  8 42  1  0
 10 43  1  0
 15 44  1  0
 15 45  1  0
 17 46  1  0
 18 47  1  0
 20 48  1  0
 21 49  1  0
 23 50  1  0
 23 51  1  0
 23 52  1  0
 24 53  1  0
 24 54  1  0
 24 55  1  0
 25 56  1  0
 25 57  1  0
 25 58  1  0
 27 59  1  0
 28 60  1  0
 29 61  1  0
 30 62  1  0
M  END
>  <Batch_No>  (298) 
K261-1306

>  <EC50_nM>  (298) 
1430

>  <Set>  (298) 
Probe-like

>  <Molecular_Weight>  (298) 
480.57591

>  <ALogP>  (298) 
5.207

$$$$
MMV019241
     RDKit          3D

 45 49  0  0  0  0  0  0  0  0999 V2000
    9.8902    0.8544    2.1574 Br  0  0  0  0  0  0  0  0  0  0  0  0
    8.6409    0.4069    0.7948 C   0  0  0  0  0  0  0  0  0  0  0  0
    9.0877    0.0226   -0.4517 C   0  0  0  0  0  0  0  0  0  0  0  0
    8.1615   -0.2967   -1.4220 C   0  0  0  0  0  0  0  0  0  0  0  0
    6.7965   -0.2302   -1.1416 C   0  0  0  0  0  0  0  0  0  0  0  0
    6.3296    0.1496    0.0917 C   0  0  0  0  0  0  0  0  0  0  0  0
    7.2867    0.4641    1.0453 C   0  0  0  0  0  0  0  0  0  0  0  0
    4.8905    0.2271    0.4110 C   0  0  0  0  0  0  0  0  0  0  0  0
    4.6038    0.5850    1.5655 O   0  0  0  0  0  0  0  0  0  0  0  0
    3.8797   -0.0800   -0.5163 N   0  0  0  0  0  0  0  0  0  0  0  0
    2.4906   -0.0364   -0.3076 C   0  0  0  0  0  0  0  0  0  0  0  0
    1.8557    0.3176    0.8522 C   0  0  0  0  0  0  0  0  0  0  0  0
    0.4583    0.3320    0.9684 C   0  0  0  0  0  0  0  0  0  0  0  0
   -0.3475   -0.0140   -0.0936 C   0  0  0  0  0  0  0  0  0  0  0  0
    0.2819   -0.3718   -1.2655 C   0  0  0  0  0  0  0  0  0  0  0  0
    1.6541   -0.3843   -1.3742 C   0  0  0  0  0  0  0  0  0  0  0  0
   -1.7990   -0.0033    0.0133 C   0  0  0  0  0  0  0  0  0  0  0  0
   -2.6438   -0.3276   -0.9775 N   0  0  0  0  0  0  0  0  0  0  0  0
   -3.9180   -0.2180   -0.5643 C   0  0  0  0  0  0  0  0  0  0  0  0
   -5.1223   -0.4363   -1.1994 C   0  0  0  0  0  0  0  0  0  0  0  0
   -6.2965   -0.2381   -0.5088 C   0  0  0  0  0  0  0  0  0  0  0  0
   -7.4718   -0.4708   -1.1911 C   0  0  0  0  0  0  0  0  0  0  0  0
   -8.6735   -0.2856   -0.5404 C   0  0  0  0  0  0  0  0  0  0  0  0
   -8.6559    0.1280    0.7765 C   0  0  0  0  0  0  0  0  0  0  0  0
   -7.4531    0.3578    1.4481 C   0  0  0  0  0  0  0  0  0  0  0  0
   -6.2463    0.1745    0.8034 C   0  0  0  0  0  0  0  0  0  0  0  0
   -5.0244    0.3882    1.4229 C   0  0  0  0  0  0  0  0  0  0  0  0
   -3.8285    0.1978    0.7561 C   0  0  0  0  0  0  0  0  0  0  0  0
   -2.5194    0.3211    1.0832 N   0  0  0  0  0  0  0  0  0  0  0  0
   10.1294   -0.0439   -0.7159 H   0  0  0  0  0  0  0  0  0  0  0  0
    8.5098   -0.6025   -2.4139 H   0  0  0  0  0  0  0  0  0  0  0  0
    6.1445   -0.4960   -1.9552 H   0  0  0  0  0  0  0  0  0  0  0  0
    6.9834    0.7718    2.0407 H   0  0  0  0  0  0  0  0  0  0  0  0
    4.2125   -0.3771   -1.4796 H   0  0  0  0  0  0  0  0  0  0  0  0
    2.3949    0.5967    1.7144 H   0  0  0  0  0  0  0  0  0  0  0  0
   -0.0031    0.6247    1.9241 H   0  0  0  0  0  0  0  0  0  0  0  0
   -0.3296   -0.6418   -2.0950 H   0  0  0  0  0  0  0  0  0  0  0  0
    2.0551   -0.6812   -2.3402 H   0  0  0  0  0  0  0  0  0  0  0  0
   -5.0927   -0.7595   -2.2307 H   0  0  0  0  0  0  0  0  0  0  0  0
   -7.4505   -0.7949   -2.2250 H   0  0  0  0  0  0  0  0  0  0  0  0
   -9.5981   -0.4700   -1.0817 H   0  0  0  0  0  0  0  0  0  0  0  0
   -9.6172    0.2613    1.2498 H   0  0  0  0  0  0  0  0  0  0  0  0
   -7.4651    0.6837    2.4873 H   0  0  0  0  0  0  0  0  0  0  0  0
   -5.0037    0.7118    2.4531 H   0  0  0  0  0  0  0  0  0  0  0  0
   -2.1771    0.6243    2.0322 H   0  0  0  0  0  0  0  0  0  0  0  0
  1  2  1  0
  2  3  2  0
  3  4  1  0
  4  5  2  0
  5  6  1  0
  6  7  2  0
  6  8  1  0
  8  9  2  0
  8 10  1  0
 10 11  1  0
 11 12  2  0
 12 13  1  0
 13 14  2  0
 14 15  1  0
 15 16  2  0
 14 17  1  0
 17 18  2  0
 18 19  1  0
 19 20  2  0
 20 21  1  0
 21 22  2  0
 22 23  1  0
 23 24  2  0
 24 25  1  0
 25 26  2  0
 26 27  1  0
 27 28  2  0
 28 29  1  0
  7  2  1  0
 16 11  1  0
 29 17  1  0
 28 19  1  0
 26 21  1  0
  3 30  1  0
  4 31  1  0
  5 32  1  0
  7 33  1  0
 10 34  1  0
 12 35  1  0
 13 36  1  0
 15 37  1  0
 16 38  1  0
 20 39  1  0
 22 40  1  0
 23 41  1  0
 24 42  1  0
 25 43  1  0
 27 44  1  0
 29 45  1  0
M  END
>  <Batch_No>  (299) 
STK223379

>  <EC50_nM>  (299) 
450

>  <Set>  (299) 
Probe-like

>  <Molecular_Weight>  (299) 
442.30734

>  <ALogP>  (299) 
5.712

$$$$
MMV665783
     RDKit          3D

 48 50  0  0  0  0  0  0  0  0999 V2000
   -4.4616    2.3959    0.3304 C   0  0  0  0  0  0  0  0  0  0  0  0
   -3.4854    1.6873   -0.5467 C   0  0  0  0  0  0  0  0  0  0  0  0
   -3.1745    0.3413   -0.1545 N   0  0  0  0  0  0  0  0  0  0  0  0
   -4.2754   -0.5691   -0.3163 C   0  0  0  0  0  0  0  0  0  0  0  0
   -4.5625   -0.7604   -1.8065 C   0  0  0  0  0  0  0  0  0  0  0  0
   -2.6085    0.3771    1.1569 C   0  0  0  0  0  0  0  0  0  0  0  0
   -2.2172   -0.9516    1.7243 C   0  0  0  0  0  0  0  0  0  0  0  0
   -1.1983   -1.6821    0.9027 C   0  0  0  0  0  0  0  0  0  0  0  0
    0.0532   -0.9345    0.7660 N   0  0  0  0  0  0  0  0  0  0  0  0
    1.0971   -1.4778   -0.0190 C   0  0  0  0  0  0  0  0  0  0  0  0
    0.9090   -2.7067   -0.6551 C   0  0  0  0  0  0  0  0  0  0  0  0
    1.9112   -3.2679   -1.4410 C   0  0  0  0  0  0  0  0  0  0  0  0
    3.0960   -2.6595   -1.6234 N   0  0  0  0  0  0  0  0  0  0  0  0
    3.2867   -1.4716   -1.0120 C   0  0  0  0  0  0  0  0  0  0  0  0
    4.5179   -0.8722   -1.2192 C   0  0  0  0  0  0  0  0  0  0  0  0
    4.7714    0.3340   -0.6247 C   0  0  0  0  0  0  0  0  0  0  0  0
    6.0059    0.9108   -0.8482 C   0  0  0  0  0  0  0  0  0  0  0  0
    6.3179    2.1221   -0.2783 C   0  0  0  0  0  0  0  0  0  0  0  0
    5.3694    2.7473    0.5214 C   0  0  0  0  0  0  0  0  0  0  0  0
    4.1368    2.1458    0.7291 C   0  0  0  0  0  0  0  0  0  0  0  0
    3.8022    0.9312    0.1673 C   0  0  0  0  0  0  0  0  0  0  0  0
    2.5752    0.3307    0.3717 C   0  0  0  0  0  0  0  0  0  0  0  0
    2.3136   -0.8774   -0.2200 C   0  0  0  0  0  0  0  0  0  0  0  0
   -4.0379    2.6987    1.3104 H   0  0  0  0  0  0  0  0  0  0  0  0
   -5.4071    1.8924    0.5152 H   0  0  0  0  0  0  0  0  0  0  0  0
   -4.7190    3.3556   -0.1942 H   0  0  0  0  0  0  0  0  0  0  0  0
   -2.5559    2.2624   -0.5874 H   0  0  0  0  0  0  0  0  0  0  0  0
   -3.9220    1.6349   -1.5667 H   0  0  0  0  0  0  0  0  0  0  0  0
   -5.1745   -0.0846    0.1155 H   0  0  0  0  0  0  0  0  0  0  0  0
   -4.1527   -1.5193    0.1993 H   0  0  0  0  0  0  0  0  0  0  0  0
   -3.8268   -0.2314   -2.4440 H   0  0  0  0  0  0  0  0  0  0  0  0
   -4.6062   -1.8568   -2.0152 H   0  0  0  0  0  0  0  0  0  0  0  0
   -5.5678   -0.3603   -2.0923 H   0  0  0  0  0  0  0  0  0  0  0  0
   -3.2776    0.8551    1.9071 H   0  0  0  0  0  0  0  0  0  0  0  0
   -1.6900    1.0058    1.0925 H   0  0  0  0  0  0  0  0  0  0  0  0
   -3.0910   -1.5798    1.9176 H   0  0  0  0  0  0  0  0  0  0  0  0
   -1.7480   -0.7651    2.7204 H   0  0  0  0  0  0  0  0  0  0  0  0
   -0.9126   -2.5827    1.5163 H   0  0  0  0  0  0  0  0  0  0  0  0
   -1.5658   -2.0556   -0.0523 H   0  0  0  0  0  0  0  0  0  0  0  0
    0.0882   -0.0305    1.2705 H   0  0  0  0  0  0  0  0  0  0  0  0
    0.0047   -3.2599   -0.5676 H   0  0  0  0  0  0  0  0  0  0  0  0
    1.7641   -4.2238   -1.9360 H   0  0  0  0  0  0  0  0  0  0  0  0
    5.2802   -1.3532   -1.8489 H   0  0  0  0  0  0  0  0  0  0  0  0
    6.7219    0.4084   -1.4703 H   0  0  0  0  0  0  0  0  0  0  0  0
    7.2811    2.5372   -0.4746 H   0  0  0  0  0  0  0  0  0  0  0  0
    5.6493    3.6863    0.9452 H   0  0  0  0  0  0  0  0  0  0  0  0
    3.4222    2.6486    1.3520 H   0  0  0  0  0  0  0  0  0  0  0  0
    1.8633    0.8252    0.9869 H   0  0  0  0  0  0  0  0  0  0  0  0
  1  2  1  0
  2  3  1  0
  3  4  1  0
  4  5  1  0
  3  6  1  0
  6  7  1  0
  7  8  1  0
  8  9  1  0
  9 10  1  0
 10 11  2  0
 11 12  1  0
 12 13  2  0
 13 14  1  0
 14 15  2  0
 15 16  1  0
 16 17  2  0
 17 18  1  0
 18 19  2  0
 19 20  1  0
 20 21  2  0
 21 22  1  0
 22 23  2  0
 23 10  1  0
 23 14  1  0
 21 16  1  0
  1 24  1  0
  1 25  1  0
  1 26  1  0
  2 27  1  0
  2 28  1  0
  4 29  1  0
  4 30  1  0
  5 31  1  0
  5 32  1  0
  5 33  1  0
  6 34  1  0
  6 35  1  0
  7 36  1  0
  7 37  1  0
  8 38  1  0
  8 39  1  0
  9 40  1  0
 11 41  1  0
 12 42  1  0
 15 43  1  0
 17 44  1  0
 18 45  1  0
 19 46  1  0
 20 47  1  0
 22 48  1  0
M  END
>  <Batch_No>  (300) 
AG-690/36535025

>  <EC50_nM>  (300) 
ND

>  <Set>  (300) 
Probe-like

>  <Molecular_Weight>  (300) 
307.43259

>  <ALogP>  (300) 
3.632

$$$$
MMV000787
     RDKit          3D

 58 61  0  0  0  0  0  0  0  0999 V2000
    7.6923    2.9776   -0.8742 C   0  0  0  0  0  0  0  0  0  0  0  0
    6.7176    1.8368   -1.0768 C   0  0  0  0  0  0  0  0  0  0  0  0
    5.5079    2.0295   -0.1965 C   0  0  0  0  0  0  0  0  0  0  0  0
    4.6083    0.9782   -0.3832 O   0  0  0  0  0  0  0  0  0  0  0  0
    3.4795    1.1103    0.3885 C   0  0  0  0  0  0  0  0  0  0  0  0
    2.5715   -0.0230    0.1570 C   0  0  0  0  0  0  0  0  0  0  0  0
    1.4293    0.1059   -0.6207 C   0  0  0  0  0  0  0  0  0  0  0  0
    0.5770   -0.9774   -0.8226 C   0  0  0  0  0  0  0  0  0  0  0  0
   -0.6665   -0.8373   -1.6621 C   0  0  0  0  0  0  0  0  0  0  0  0
   -1.7572   -0.7519   -0.7720 N   0  0  0  0  0  0  0  0  0  0  0  0
   -1.8088    0.2898    0.1585 C   0  0  0  0  0  0  0  0  0  0  0  0
   -3.1512    0.7886    0.5431 C   0  0  0  0  0  0  0  0  0  0  0  0
   -4.2576    0.0317    0.0233 N   0  0  0  0  0  0  0  0  0  0  0  0
   -4.1942   -1.0980   -0.8358 C   0  0  0  0  0  0  0  0  0  0  0  0
   -2.8198   -1.6611   -0.8805 C   0  0  0  0  0  0  0  0  0  0  0  0
   -5.5700    0.4846    0.4269 C   0  0  0  0  0  0  0  0  0  0  0  0
   -5.7070    1.5987    1.2590 C   0  0  0  0  0  0  0  0  0  0  0  0
   -6.9497    2.0502    1.6580 C   0  0  0  0  0  0  0  0  0  0  0  0
   -8.0714    1.3819    1.2215 C   0  0  0  0  0  0  0  0  0  0  0  0
   -7.9870    0.2641    0.3895 C   0  0  0  0  0  0  0  0  0  0  0  0
   -9.4320   -0.5792   -0.1588 Cl  0  0  0  0  0  0  0  0  0  0  0  0
   -6.7219   -0.1455    0.0203 C   0  0  0  0  0  0  0  0  0  0  0  0
    0.8740   -2.2000   -0.2390 C   0  0  0  0  0  0  0  0  0  0  0  0
    0.0366   -3.3066   -0.4231 O   0  0  0  0  0  0  0  0  0  0  0  0
    2.0157   -2.3465    0.5437 C   0  0  0  0  0  0  0  0  0  0  0  0
    2.2887   -3.5441    1.1043 N   0  0  0  0  0  0  0  0  0  0  0  0
    3.3943   -3.6795    1.8606 C   0  0  0  0  0  0  0  0  0  0  0  0
    4.2738   -2.6359    2.0925 C   0  0  0  0  0  0  0  0  0  0  0  0
    3.9705   -1.4183    1.5062 C   0  0  0  0  0  0  0  0  0  0  0  0
    2.8475   -1.2412    0.7254 C   0  0  0  0  0  0  0  0  0  0  0  0
    8.1310    3.2704   -1.8503 H   0  0  0  0  0  0  0  0  0  0  0  0
    8.5321    2.6962   -0.2068 H   0  0  0  0  0  0  0  0  0  0  0  0
    7.2024    3.8665   -0.4291 H   0  0  0  0  0  0  0  0  0  0  0  0
    6.4016    1.8547   -2.1391 H   0  0  0  0  0  0  0  0  0  0  0  0
    7.1930    0.8698   -0.8427 H   0  0  0  0  0  0  0  0  0  0  0  0
    4.9897    2.9754   -0.3713 H   0  0  0  0  0  0  0  0  0  0  0  0
    5.8254    1.9321    0.8851 H   0  0  0  0  0  0  0  0  0  0  0  0
    3.6954    1.2897    1.4610 H   0  0  0  0  0  0  0  0  0  0  0  0
    2.9577    2.0427    0.0322 H   0  0  0  0  0  0  0  0  0  0  0  0
    1.1939    1.0579   -1.0776 H   0  0  0  0  0  0  0  0  0  0  0  0
   -0.7149   -1.6796   -2.3544 H   0  0  0  0  0  0  0  0  0  0  0  0
   -0.4989    0.0786   -2.2795 H   0  0  0  0  0  0  0  0  0  0  0  0
   -1.1788    1.1399   -0.1975 H   0  0  0  0  0  0  0  0  0  0  0  0
   -1.2837   -0.0641    1.0971 H   0  0  0  0  0  0  0  0  0  0  0  0
   -3.2937    1.8493    0.1759 H   0  0  0  0  0  0  0  0  0  0  0  0
   -3.2696    0.8471    1.6449 H   0  0  0  0  0  0  0  0  0  0  0  0
   -4.5834   -0.8506   -1.8605 H   0  0  0  0  0  0  0  0  0  0  0  0
   -4.8750   -1.9403   -0.5082 H   0  0  0  0  0  0  0  0  0  0  0  0
   -2.7244   -2.4319   -0.0767 H   0  0  0  0  0  0  0  0  0  0  0  0
   -2.6882   -2.2234   -1.8473 H   0  0  0  0  0  0  0  0  0  0  0  0
   -4.8550    2.1359    1.6136 H   0  0  0  0  0  0  0  0  0  0  0  0
   -7.0506    2.9192    2.3066 H   0  0  0  0  0  0  0  0  0  0  0  0
   -9.0413    1.7453    1.5407 H   0  0  0  0  0  0  0  0  0  0  0  0
   -6.6746   -1.0149   -0.6266 H   0  0  0  0  0  0  0  0  0  0  0  0
    0.0082   -3.8541   -1.2738 H   0  0  0  0  0  0  0  0  0  0  0  0
    3.6239   -4.6410    2.3176 H   0  0  0  0  0  0  0  0  0  0  0  0
    5.1476   -2.7508    2.6932 H   0  0  0  0  0  0  0  0  0  0  0  0
    4.6401   -0.6025    1.6762 H   0  0  0  0  0  0  0  0  0  0  0  0
  1  2  1  0
  2  3  1  0
  3  4  1  0
  4  5  1  0
  5  6  1  0
  6  7  2  0
  7  8  1  0
  8  9  1  0
  9 10  1  0
 10 11  1  0
 11 12  1  0
 12 13  1  0
 13 14  1  0
 14 15  1  0
 13 16  1  0
 16 17  2  0
 17 18  1  0
 18 19  2  0
 19 20  1  0
 20 21  1  0
 20 22  2  0
  8 23  2  0
 23 24  1  0
 23 25  1  0
 25 26  2  0
 26 27  1  0
 27 28  2  0
 28 29  1  0
 29 30  2  0
 30  6  1  0
 15 10  1  0
 22 16  1  0
 30 25  1  0
  1 31  1  0
  1 32  1  0
  1 33  1  0
  2 34  1  0
  2 35  1  0
  3 36  1  0
  3 37  1  0
  5 38  1  0
  5 39  1  0
  7 40  1  0
  9 41  1  0
  9 42  1  0
 11 43  1  0
 11 44  1  0
 12 45  1  0
 12 46  1  0
 14 47  1  0
 14 48  1  0
 15 49  1  0
 15 50  1  0
 17 51  1  0
 18 52  1  0
 19 53  1  0
 22 54  1  0
 24 55  1  0
 27 56  1  0
 28 57  1  0
 29 58  1  0
M  END
>  <Batch_No>  (301) 
D014-0043

>  <EC50_nM>  (301) 
407

>  <Set>  (301) 
Probe-like

>  <Molecular_Weight>  (301) 
425.95102

>  <ALogP>  (301) 
4.818

$$$$
MMV666106
     RDKit          3D

 59 62  0  0  0  0  0  0  0  0999 V2000
    0.8093   -0.4419    1.7273 O   0  0  0  0  0  0  0  0  0  0  0  0
    0.8524   -0.1973    0.5094 C   0  0  0  0  0  0  0  0  0  0  0  0
    2.1079   -0.2045   -0.1532 N   0  0  0  0  0  0  0  0  0  0  0  0
    3.3648   -0.4836    0.5337 C   0  0  0  0  0  0  0  0  0  0  0  0
    3.9942   -1.6819   -0.1397 C   0  0  0  0  0  0  0  0  0  0  0  0
    5.4275   -1.8711    0.2226 C   0  0  0  0  0  0  0  0  0  0  0  0
    6.2229   -0.5999    0.2340 C   0  0  0  0  0  0  0  0  0  0  0  0
    5.5446    0.5012    1.0115 C   0  0  0  0  0  0  0  0  0  0  0  0
    4.2038    0.7648    0.3616 C   0  0  0  0  0  0  0  0  0  0  0  0
   -0.3487    0.1101   -0.3324 C   0  0  0  0  0  0  0  0  0  0  0  0
   -1.5413    0.0462    0.4532 N   0  0  0  0  0  0  0  0  0  0  0  0
   -2.4632   -1.0852    0.2592 C   0  0  0  0  0  0  0  0  0  0  0  0
   -3.5097   -0.8244   -0.7691 C   0  0  0  0  0  0  0  0  0  0  0  0
   -4.3943   -2.0398   -0.8757 C   0  0  0  0  0  0  0  0  0  0  0  0
   -5.5262   -2.1794   -0.1007 C   0  0  0  0  0  0  0  0  0  0  0  0
   -6.3638   -3.2681   -0.1647 C   0  0  0  0  0  0  0  0  0  0  0  0
   -6.0349   -4.2645   -1.0605 C   0  0  0  0  0  0  0  0  0  0  0  0
   -4.9175   -4.1351   -1.8307 C   0  0  0  0  0  0  0  0  0  0  0  0
   -4.0743   -3.0430   -1.7693 C   0  0  0  0  0  0  0  0  0  0  0  0
   -1.9299    0.9883    1.4414 C   0  0  0  0  0  0  0  0  0  0  0  0
   -3.0129    0.8249    2.1111 O   0  0  0  0  0  0  0  0  0  0  0  0
   -1.1841    2.1877    1.7854 C   0  0  0  0  0  0  0  0  0  0  0  0
   -0.0141    2.3937    2.2867 O   0  0  0  0  0  0  0  0  0  0  0  0
    0.2567    3.6653    2.4317 C   0  0  0  0  0  0  0  0  0  0  0  0
   -0.8290    4.4141    1.9889 C   0  0  0  0  0  0  0  0  0  0  0  0
   -1.7478    3.4592    1.5766 C   0  0  0  0  0  0  0  0  0  0  0  0
   -0.2495    1.3543   -1.0731 C   0  0  0  0  0  0  0  0  0  0  0  0
    0.6781    2.3074   -1.2388 C   0  0  0  0  0  0  0  0  0  0  0  0
    0.4286    3.3610   -2.0378 C   0  0  0  0  0  0  0  0  0  0  0  0
   -0.7516    3.4581   -2.6695 C   0  0  0  0  0  0  0  0  0  0  0  0
   -1.6347    1.8889   -2.0853 S   0  0  0  0  0  0  0  0  0  0  0  0
    2.2105   -0.0151   -1.1927 H   0  0  0  0  0  0  0  0  0  0  0  0
    3.1823   -0.6515    1.5934 H   0  0  0  0  0  0  0  0  0  0  0  0
    3.4388   -2.5700    0.2365 H   0  0  0  0  0  0  0  0  0  0  0  0
    3.8099   -1.6338   -1.2275 H   0  0  0  0  0  0  0  0  0  0  0  0
    5.5547   -2.4204    1.1831 H   0  0  0  0  0  0  0  0  0  0  0  0
    5.8781   -2.5309   -0.5606 H   0  0  0  0  0  0  0  0  0  0  0  0
    6.4975   -0.2155   -0.7481 H   0  0  0  0  0  0  0  0  0  0  0  0
    7.1707   -0.8151    0.7853 H   0  0  0  0  0  0  0  0  0  0  0  0
    5.4147    0.2835    2.0720 H   0  0  0  0  0  0  0  0  0  0  0  0
    6.1418    1.4173    0.8558 H   0  0  0  0  0  0  0  0  0  0  0  0
    4.3637    0.9879   -0.7276 H   0  0  0  0  0  0  0  0  0  0  0  0
    3.6706    1.6003    0.8421 H   0  0  0  0  0  0  0  0  0  0  0  0
   -0.3936   -0.7500   -1.0851 H   0  0  0  0  0  0  0  0  0  0  0  0
   -1.8398   -1.9496   -0.0860 H   0  0  0  0  0  0  0  0  0  0  0  0
   -2.8594   -1.3486    1.2445 H   0  0  0  0  0  0  0  0  0  0  0  0
   -4.1662    0.0207   -0.5511 H   0  0  0  0  0  0  0  0  0  0  0  0
   -3.0202   -0.7201   -1.7779 H   0  0  0  0  0  0  0  0  0  0  0  0
   -5.8085   -1.4018    0.6176 H   0  0  0  0  0  0  0  0  0  0  0  0
   -7.2530   -3.3926    0.4339 H   0  0  0  0  0  0  0  0  0  0  0  0
   -6.6876   -5.1445   -1.1318 H   0  0  0  0  0  0  0  0  0  0  0  0
   -4.6682   -4.9221   -2.5299 H   0  0  0  0  0  0  0  0  0  0  0  0
   -3.1809   -2.9570   -2.3975 H   0  0  0  0  0  0  0  0  0  0  0  0
    1.1951    4.0341    2.8383 H   0  0  0  0  0  0  0  0  0  0  0  0
   -0.9213    5.4941    1.9758 H   0  0  0  0  0  0  0  0  0  0  0  0
   -2.7237    3.6890    1.1693 H   0  0  0  0  0  0  0  0  0  0  0  0
    1.6667    2.2250   -0.6999 H   0  0  0  0  0  0  0  0  0  0  0  0
    1.2037    4.1663   -2.1820 H   0  0  0  0  0  0  0  0  0  0  0  0
   -1.2396    4.1148   -3.3273 H   0  0  0  0  0  0  0  0  0  0  0  0
  1  2  2  0
  2  3  1  0
  3  4  1  0
  4  5  1  0
  5  6  1  0
  6  7  1  0
  7  8  1  0
  8  9  1  0
  2 10  1  0
 10 11  1  0
 11 12  1  0
 12 13  1  0
 13 14  1  0
 14 15  2  0
 15 16  1  0
 16 17  2  0
 17 18  1  0
 18 19  2  0
 11 20  1  0
 20 21  2  0
 20 22  1  0
 22 23  1  0
 23 24  1  0
 24 25  2  0
 25 26  1  0
 10 27  1  0
 27 28  2  0
 28 29  1  0
 29 30  2  0
 30 31  1  0
  9  4  1  0
 19 14  1  0
 26 22  2  0
 31 27  1  0
  3 32  1  0
  4 33  1  0
  5 34  1  0
  5 35  1  0
  6 36  1  0
  6 37  1  0
  7 38  1  0
  7 39  1  0
  8 40  1  0
  8 41  1  0
  9 42  1  0
  9 43  1  0
 10 44  1  0
 12 45  1  0
 12 46  1  0
 13 47  1  0
 13 48  1  0
 15 49  1  0
 16 50  1  0
 17 51  1  0
 18 52  1  0
 19 53  1  0
 24 54  1  0
 25 55  1  0
 26 56  1  0
 28 57  1  0
 29 58  1  0
 30 59  1  0
M  END
>  <Batch_No>  (302) 
ASN 04884623

>  <EC50_nM>  (302) 
1070

>  <Set>  (302) 
Probe-like

>  <Molecular_Weight>  (302) 
436.56642

>  <ALogP>  (302) 
5.134

$$$$
MMV666022
     RDKit          3D

 49 52  0  0  0  0  0  0  0  0999 V2000
    7.2578    2.7693    0.8912 C   0  0  0  0  0  0  0  0  0  0  0  0
    6.4375    2.2949   -0.1694 O   0  0  0  0  0  0  0  0  0  0  0  0
    5.1911    1.7278    0.0902 C   0  0  0  0  0  0  0  0  0  0  0  0
    4.4162    1.2749   -0.9689 C   0  0  0  0  0  0  0  0  0  0  0  0
    3.1795    0.7167   -0.6578 C   0  0  0  0  0  0  0  0  0  0  0  0
    2.7331    0.6128    0.6421 C   0  0  0  0  0  0  0  0  0  0  0  0
    3.5364    1.0760    1.6642 C   0  0  0  0  0  0  0  0  0  0  0  0
    4.7598    1.6323    1.4040 C   0  0  0  0  0  0  0  0  0  0  0  0
    1.4454    0.0366    1.0069 C   0  0  0  0  0  0  0  0  0  0  0  0
    1.0647   -0.0551    2.2160 O   0  0  0  0  0  0  0  0  0  0  0  0
    0.5219   -0.4645    0.0376 N   0  0  0  0  0  0  0  0  0  0  0  0
   -0.7507   -1.0336    0.4049 C   0  0  0  0  0  0  0  0  0  0  0  0
   -0.8602   -2.4690    0.0378 C   0  0  0  0  0  0  0  0  0  0  0  0
    0.0416   -3.0568   -0.8428 C   0  0  0  0  0  0  0  0  0  0  0  0
   -0.0824   -4.3954   -1.1673 C   0  0  0  0  0  0  0  0  0  0  0  0
   -1.0923   -5.1873   -0.6363 C   0  0  0  0  0  0  0  0  0  0  0  0
   -1.9853   -4.5874    0.2412 C   0  0  0  0  0  0  0  0  0  0  0  0
   -1.8679   -3.2388    0.5739 C   0  0  0  0  0  0  0  0  0  0  0  0
   -3.0582   -2.6095    1.6895 Cl  0  0  0  0  0  0  0  0  0  0  0  0
   -1.8903   -0.2524   -0.1806 C   0  0  0  0  0  0  0  0  0  0  0  0
   -2.1742   -0.3530   -1.5272 C   0  0  0  0  0  0  0  0  0  0  0  0
   -3.2476    0.3955   -2.0105 C   0  0  0  0  0  0  0  0  0  0  0  0
   -3.6740    0.3224   -3.7170 Cl  0  0  0  0  0  0  0  0  0  0  0  0
   -3.9926    1.2076   -1.1514 C   0  0  0  0  0  0  0  0  0  0  0  0
   -5.0587    1.9588   -1.5979 C   0  0  0  0  0  0  0  0  0  0  0  0
   -5.7617    2.7467   -0.6980 C   0  0  0  0  0  0  0  0  0  0  0  0
   -5.4114    2.7918    0.6411 C   0  0  0  0  0  0  0  0  0  0  0  0
   -4.3744    2.0573    1.0601 N   0  0  0  0  0  0  0  0  0  0  0  0
   -3.6902    1.2924    0.1917 C   0  0  0  0  0  0  0  0  0  0  0  0
   -2.6402    0.5630    0.6747 C   0  0  0  0  0  0  0  0  0  0  0  0
   -2.3148    0.6316    2.0253 O   0  0  0  0  0  0  0  0  0  0  0  0
    6.8199    3.7328    1.2574 H   0  0  0  0  0  0  0  0  0  0  0  0
    8.2597    2.9790    0.4677 H   0  0  0  0  0  0  0  0  0  0  0  0
    7.3369    2.0255    1.7215 H   0  0  0  0  0  0  0  0  0  0  0  0
    4.7467    1.3457   -2.0014 H   0  0  0  0  0  0  0  0  0  0  0  0
    2.5625    0.3583   -1.4670 H   0  0  0  0  0  0  0  0  0  0  0  0
    3.2103    1.0086    2.7124 H   0  0  0  0  0  0  0  0  0  0  0  0
    5.3527    1.9814    2.2453 H   0  0  0  0  0  0  0  0  0  0  0  0
    0.7528   -0.4293   -0.9754 H   0  0  0  0  0  0  0  0  0  0  0  0
   -0.8091   -0.9931    1.5221 H   0  0  0  0  0  0  0  0  0  0  0  0
    0.8448   -2.4866   -1.2845 H   0  0  0  0  0  0  0  0  0  0  0  0
    0.6038   -4.8959   -1.8539 H   0  0  0  0  0  0  0  0  0  0  0  0
   -1.1728   -6.2396   -0.9044 H   0  0  0  0  0  0  0  0  0  0  0  0
   -2.7678   -5.2122    0.6487 H   0  0  0  0  0  0  0  0  0  0  0  0
   -1.5789   -0.9916   -2.1701 H   0  0  0  0  0  0  0  0  0  0  0  0
   -5.3196    1.9117   -2.6514 H   0  0  0  0  0  0  0  0  0  0  0  0
   -6.5816    3.3170   -1.0721 H   0  0  0  0  0  0  0  0  0  0  0  0
   -5.9519    3.4034    1.3579 H   0  0  0  0  0  0  0  0  0  0  0  0
   -2.9663    0.7791    2.7591 H   0  0  0  0  0  0  0  0  0  0  0  0
  1  2  1  0
  2  3  1  0
  3  4  2  0
  4  5  1  0
  5  6  2  0
  6  7  1  0
  7  8  2  0
  6  9  1  0
  9 10  2  0
  9 11  1  0
 11 12  1  0
 12 13  1  0
 13 14  2  0
 14 15  1  0
 15 16  2  0
 16 17  1  0
 17 18  2  0
 18 19  1  0
 12 20  1  0
 20 21  2  0
 21 22  1  0
 22 23  1  0
 22 24  2  0
 24 25  1  0
 25 26  2  0
 26 27  1  0
 27 28  2  0
 28 29  1  0
 29 30  2  0
 30 31  1  0
  8  3  1  0
 18 13  1  0
 30 20  1  0
 29 24  1  0
  1 32  1  0
  1 33  1  0
  1 34  1  0
  4 35  1  0
  5 36  1  0
  7 37  1  0
  8 38  1  0
 11 39  1  0
 12 40  1  0
 14 41  1  0
 15 42  1  0
 16 43  1  0
 17 44  1  0
 21 45  1  0
 25 46  1  0
 26 47  1  0
 27 48  1  0
 31 49  1  0
M  END
>  <Batch_No>  (303) 
6412712

>  <EC50_nM>  (303) 
830

>  <Set>  (303) 
Probe-like

>  <Molecular_Weight>  (303) 
453.31731

>  <ALogP>  (303) 
5.49

$$$$
MMV498479
     RDKit          3D

 33 34  0  0  0  0  0  0  0  0999 V2000
    5.1660    1.4691   -0.4447 C   0  0  0  0  0  0  0  0  0  0  0  0
    4.7817    0.3501    0.4857 C   0  0  0  0  0  0  0  0  0  0  0  0
    3.4180    0.0042    0.3799 O   0  0  0  0  0  0  0  0  0  0  0  0
    2.3891    0.9023    0.6334 C   0  0  0  0  0  0  0  0  0  0  0  0
    2.6556    2.0969    0.9785 O   0  0  0  0  0  0  0  0  0  0  0  0
    0.9870    0.4744    0.5035 C   0  0  0  0  0  0  0  0  0  0  0  0
   -0.0212    1.3761    0.7611 C   0  0  0  0  0  0  0  0  0  0  0  0
   -1.3000    0.9749    0.6409 N   0  0  0  0  0  0  0  0  0  0  0  0
   -1.6611   -0.2574    0.2834 C   0  0  0  0  0  0  0  0  0  0  0  0
   -2.9884   -0.5510    0.1948 C   0  0  0  0  0  0  0  0  0  0  0  0
   -4.0413    0.4540    0.4832 C   0  0  0  0  0  0  0  0  0  0  0  0
   -4.0901    1.3772   -0.7322 C   0  0  0  0  0  0  0  0  0  0  0  0
   -3.3794   -1.8262   -0.1746 C   0  0  0  0  0  0  0  0  0  0  0  0
   -2.3977   -2.7769   -0.4465 C   0  0  0  0  0  0  0  0  0  0  0  0
   -1.0460   -2.4672   -0.3531 C   0  0  0  0  0  0  0  0  0  0  0  0
   -0.6721   -1.1875    0.0176 C   0  0  0  0  0  0  0  0  0  0  0  0
    0.6469   -0.8098    0.1311 C   0  0  0  0  0  0  0  0  0  0  0  0
    1.6450   -1.7494   -0.1374 O   0  0  0  0  0  0  0  0  0  0  0  0
    6.2673    1.4078   -0.5730 H   0  0  0  0  0  0  0  0  0  0  0  0
    4.9745    2.4708   -0.0183 H   0  0  0  0  0  0  0  0  0  0  0  0
    4.7204    1.3211   -1.4573 H   0  0  0  0  0  0  0  0  0  0  0  0
    5.3497   -0.5446    0.1348 H   0  0  0  0  0  0  0  0  0  0  0  0
    5.1259    0.5844    1.4929 H   0  0  0  0  0  0  0  0  0  0  0  0
    0.2450    2.3698    1.0492 H   0  0  0  0  0  0  0  0  0  0  0  0
   -5.0305   -0.0241    0.6187 H   0  0  0  0  0  0  0  0  0  0  0  0
   -3.7555    1.1137    1.3352 H   0  0  0  0  0  0  0  0  0  0  0  0
   -4.6624    2.2938   -0.5445 H   0  0  0  0  0  0  0  0  0  0  0  0
   -4.6162    0.7972   -1.5218 H   0  0  0  0  0  0  0  0  0  0  0  0
   -3.0622    1.5749   -1.0627 H   0  0  0  0  0  0  0  0  0  0  0  0
   -4.3996   -2.1309   -0.2650 H   0  0  0  0  0  0  0  0  0  0  0  0
   -2.6611   -3.7872   -0.7384 H   0  0  0  0  0  0  0  0  0  0  0  0
   -0.2992   -3.2227   -0.5694 H   0  0  0  0  0  0  0  0  0  0  0  0
    1.7119   -2.1068   -1.0851 H   0  0  0  0  0  0  0  0  0  0  0  0
  1  2  1  0
  2  3  1  0
  3  4  1  0
  4  5  2  0
  4  6  1  0
  6  7  2  0
  7  8  1  0
  8  9  2  0
  9 10  1  0
 10 11  1  0
 11 12  1  0
 10 13  2  0
 13 14  1  0
 14 15  2  0
 15 16  1  0
 16 17  2  0
 17 18  1  0
 17  6  1  0
 16  9  1  0
  1 19  1  0
  1 20  1  0
  1 21  1  0
  2 22  1  0
  2 23  1  0
  7 24  1  0
 11 25  1  0
 11 26  1  0
 12 27  1  0
 12 28  1  0
 12 29  1  0
 13 30  1  0
 14 31  1  0
 15 32  1  0
 18 33  1  0
M  END
>  <Batch_No>  (304) 
D284-0201

>  <EC50_nM>  (304) 
ND

>  <Set>  (304) 
Probe-like

>  <Molecular_Weight>  (304) 
245.2738

>  <ALogP>  (304) 
2.92

$$$$
MMV007396
     RDKit          3D

 46 49  0  0  0  0  0  0  0  0999 V2000
   -4.9020    1.8255    1.2264 C   0  0  0  0  0  0  0  0  0  0  0  0
   -5.8785    0.9729    0.4714 C   0  0  0  0  0  0  0  0  0  0  0  0
   -7.1202    1.4930    0.2351 C   0  0  0  0  0  0  0  0  0  0  0  0
   -8.0577    0.7650   -0.4489 C   0  0  0  0  0  0  0  0  0  0  0  0
   -7.7386   -0.4956   -0.8961 C   0  0  0  0  0  0  0  0  0  0  0  0
   -6.4631   -1.0068   -0.6425 C   0  0  0  0  0  0  0  0  0  0  0  0
   -5.5002   -0.3140    0.0343 C   0  0  0  0  0  0  0  0  0  0  0  0
   -4.2473   -0.7013    0.3376 O   0  0  0  0  0  0  0  0  0  0  0  0
   -3.5713   -1.8579    0.0506 C   0  0  0  0  0  0  0  0  0  0  0  0
   -3.3846   -2.0198   -1.4357 C   0  0  0  0  0  0  0  0  0  0  0  0
   -2.4224   -0.5529   -1.9731 S   0  0  0  0  0  0  0  0  0  0  0  0
   -0.7752   -0.6622   -1.2255 C   0  0  0  0  0  0  0  0  0  0  0  0
   -0.0570   -1.2420   -0.5612 N   0  0  0  0  0  0  0  0  0  0  0  0
    1.1986   -0.9899   -0.2044 C   0  0  0  0  0  0  0  0  0  0  0  0
    2.0675   -1.7148    0.6142 C   0  0  0  0  0  0  0  0  0  0  0  0
    3.3300   -1.2280    0.8246 C   0  0  0  0  0  0  0  0  0  0  0  0
    3.8361   -0.0735    0.2993 C   0  0  0  0  0  0  0  0  0  0  0  0
    5.1446    0.4170    0.5261 N   0  0  0  0  0  0  0  0  0  0  0  0
    6.1918    0.0479   -0.3262 C   0  0  0  0  0  0  0  0  0  0  0  0
    6.1113   -0.6976   -1.3111 O   0  0  0  0  0  0  0  0  0  0  0  0
    7.5537    0.6095   -0.0208 C   0  0  0  0  0  0  0  0  0  0  0  0
    7.9162    1.4247    0.9640 C   0  0  0  0  0  0  0  0  0  0  0  0
    9.1999    1.8228    1.0736 C   0  0  0  0  0  0  0  0  0  0  0  0
   10.0623    1.3226    0.1052 C   0  0  0  0  0  0  0  0  0  0  0  0
    8.9833    0.2630   -0.9708 S   0  0  0  0  0  0  0  0  0  0  0  0
    2.9695    0.6586   -0.5229 C   0  0  0  0  0  0  0  0  0  0  0  0
    1.6988    0.1693   -0.7352 C   0  0  0  0  0  0  0  0  0  0  0  0
    0.3223    0.8163   -1.7133 S   0  0  0  0  0  0  0  0  0  0  0  0
   -4.0545    1.2288    1.5986 H   0  0  0  0  0  0  0  0  0  0  0  0
   -4.4979    2.6039    0.5438 H   0  0  0  0  0  0  0  0  0  0  0  0
   -5.3945    2.3450    2.0669 H   0  0  0  0  0  0  0  0  0  0  0  0
   -7.4037    2.4782    0.5720 H   0  0  0  0  0  0  0  0  0  0  0  0
   -9.0388    1.1330   -0.6554 H   0  0  0  0  0  0  0  0  0  0  0  0
   -8.4608   -1.0885   -1.4375 H   0  0  0  0  0  0  0  0  0  0  0  0
   -6.2795   -1.9900   -0.9944 H   0  0  0  0  0  0  0  0  0  0  0  0
   -4.0689   -2.7795    0.4559 H   0  0  0  0  0  0  0  0  0  0  0  0
   -2.5337   -1.8847    0.4947 H   0  0  0  0  0  0  0  0  0  0  0  0
   -4.2719   -2.1200   -2.0348 H   0  0  0  0  0  0  0  0  0  0  0  0
   -2.7033   -2.9173   -1.5480 H   0  0  0  0  0  0  0  0  0  0  0  0
    1.7977   -2.6363    1.0888 H   0  0  0  0  0  0  0  0  0  0  0  0
    4.0112   -1.8025    1.4703 H   0  0  0  0  0  0  0  0  0  0  0  0
    5.2749    1.0625    1.3586 H   0  0  0  0  0  0  0  0  0  0  0  0
    7.1574    1.7914    1.7164 H   0  0  0  0  0  0  0  0  0  0  0  0
    9.6061    2.4951    1.8498 H   0  0  0  0  0  0  0  0  0  0  0  0
   11.1401    1.4510   -0.0820 H   0  0  0  0  0  0  0  0  0  0  0  0
    3.2524    1.5781   -0.9909 H   0  0  0  0  0  0  0  0  0  0  0  0
  1  2  1  0
  2  3  2  0
  3  4  1  0
  4  5  2  0
  5  6  1  0
  6  7  2  0
  7  8  1  0
  8  9  1  0
  9 10  1  0
 10 11  1  0
 11 12  1  0
 12 13  2  0
 13 14  1  0
 14 15  2  0
 15 16  1  0
 16 17  2  0
 17 18  1  0
 18 19  1  0
 19 20  2  0
 19 21  1  0
 21 22  2  0
 22 23  1  0
 23 24  2  0
 24 25  1  0
 17 26  1  0
 26 27  2  0
 27 28  1  0
  7  2  1  0
 28 12  1  0
 27 14  1  0
 25 21  1  0
  1 29  1  0
  1 30  1  0
  1 31  1  0
  3 32  1  0
  4 33  1  0
  5 34  1  0
  6 35  1  0
  9 36  1  0
  9 37  1  0
 10 38  1  0
 10 39  1  0
 15 40  1  0
 16 41  1  0
 18 42  1  0
 22 43  1  0
 23 44  1  0
 24 45  1  0
 26 46  1  0
M  END
>  <Batch_No>  (305) 
D336-4053

>  <EC50_nM>  (305) 
697

>  <Set>  (305) 
Probe-like

>  <Molecular_Weight>  (305) 
426.57482

>  <ALogP>  (305) 
5.853

$$$$
MMV000617
     RDKit          3D

 64 66  0  0  0  0  0  0  0  0999 V2000
    4.2347    4.4685   -2.6716 C   0  0  0  0  0  0  0  0  0  0  0  0
    3.9688    3.0989   -2.8955 O   0  0  0  0  0  0  0  0  0  0  0  0
    3.1692    2.3258   -2.0557 C   0  0  0  0  0  0  0  0  0  0  0  0
    2.9269    0.9772   -2.3064 C   0  0  0  0  0  0  0  0  0  0  0  0
    2.1188    0.2488   -1.4340 C   0  0  0  0  0  0  0  0  0  0  0  0
    1.5639    0.8559   -0.3313 C   0  0  0  0  0  0  0  0  0  0  0  0
    1.8236    2.1928   -0.1122 C   0  0  0  0  0  0  0  0  0  0  0  0
    2.6218    2.9508   -0.9575 C   0  0  0  0  0  0  0  0  0  0  0  0
    0.7130    0.1593    0.6631 C   0  0  0  0  0  0  0  0  0  0  0  0
    1.1611    0.5698    1.9320 O   0  0  0  0  0  0  0  0  0  0  0  0
    0.8697   -1.3188    0.6334 C   0  0  0  0  0  0  0  0  0  0  0  0
    2.3195   -1.7328    0.9485 C   0  0  0  0  0  0  0  0  0  0  0  0
    2.4473   -3.2373    0.9054 C   0  0  0  0  0  0  0  0  0  0  0  0
    2.1085   -3.8219   -0.4168 C   0  0  0  0  0  0  0  0  0  0  0  0
    3.7570   -3.7166    1.4687 C   0  0  0  0  0  0  0  0  0  0  0  0
   -0.7327    0.6604    0.5694 C   0  0  0  0  0  0  0  0  0  0  0  0
   -1.3063    0.4403   -0.7716 C   0  0  0  0  0  0  0  0  0  0  0  0
   -2.6281    0.9097   -1.0297 N   0  0  0  0  0  0  0  0  0  0  0  0
   -2.8170    0.7158   -2.4846 C   0  0  0  0  0  0  0  0  0  0  0  0
   -4.1547    1.2688   -2.9140 C   0  0  0  0  0  0  0  0  0  0  0  0
   -4.9463    1.5857   -1.7980 O   0  0  0  0  0  0  0  0  0  0  0  0
   -5.0256    0.4027   -1.0718 C   0  0  0  0  0  0  0  0  0  0  0  0
   -3.7017    0.2493   -0.3265 C   0  0  0  0  0  0  0  0  0  0  0  0
   -1.4989    0.2001    1.7378 C   0  0  0  0  0  0  0  0  0  0  0  0
   -2.0096   -1.0664    1.9143 C   0  0  0  0  0  0  0  0  0  0  0  0
   -2.6901   -1.4641    3.0499 C   0  0  0  0  0  0  0  0  0  0  0  0
   -2.8908   -0.5725    4.0860 C   0  0  0  0  0  0  0  0  0  0  0  0
   -3.7367   -0.9895    5.5529 Cl  0  0  0  0  0  0  0  0  0  0  0  0
   -2.4006    0.6863    3.9428 C   0  0  0  0  0  0  0  0  0  0  0  0
   -1.7216    1.0809    2.8101 C   0  0  0  0  0  0  0  0  0  0  0  0
    4.7324    4.5244   -1.6601 H   0  0  0  0  0  0  0  0  0  0  0  0
    4.9479    4.7986   -3.4542 H   0  0  0  0  0  0  0  0  0  0  0  0
    3.3025    5.0684   -2.6295 H   0  0  0  0  0  0  0  0  0  0  0  0
    3.3797    0.5201   -3.1872 H   0  0  0  0  0  0  0  0  0  0  0  0
    1.9357   -0.7872   -1.6681 H   0  0  0  0  0  0  0  0  0  0  0  0
    1.4112    2.7101    0.7365 H   0  0  0  0  0  0  0  0  0  0  0  0
    2.8178    3.9856   -0.7813 H   0  0  0  0  0  0  0  0  0  0  0  0
    0.9454   -0.1068    2.6377 H   0  0  0  0  0  0  0  0  0  0  0  0
    0.4437   -1.8240   -0.2188 H   0  0  0  0  0  0  0  0  0  0  0  0
    0.3172   -1.7001    1.5483 H   0  0  0  0  0  0  0  0  0  0  0  0
    2.6061   -1.3305    1.9514 H   0  0  0  0  0  0  0  0  0  0  0  0
    3.0611   -1.3126    0.2592 H   0  0  0  0  0  0  0  0  0  0  0  0
    1.6680   -3.6089    1.6300 H   0  0  0  0  0  0  0  0  0  0  0  0
    2.2431   -4.9388   -0.3092 H   0  0  0  0  0  0  0  0  0  0  0  0
    1.0238   -3.7050   -0.6027 H   0  0  0  0  0  0  0  0  0  0  0  0
    2.7327   -3.4514   -1.2545 H   0  0  0  0  0  0  0  0  0  0  0  0
    3.6964   -4.8144    1.5651 H   0  0  0  0  0  0  0  0  0  0  0  0
    3.7914   -3.3290    2.5241 H   0  0  0  0  0  0  0  0  0  0  0  0
    4.6394   -3.4456    0.8942 H   0  0  0  0  0  0  0  0  0  0  0  0
   -0.6334    1.7896    0.6768 H   0  0  0  0  0  0  0  0  0  0  0  0
   -1.3521   -0.6610   -1.0499 H   0  0  0  0  0  0  0  0  0  0  0  0
   -0.5756    0.8790   -1.5110 H   0  0  0  0  0  0  0  0  0  0  0  0
   -2.6896   -0.3449   -2.6994 H   0  0  0  0  0  0  0  0  0  0  0  0
   -2.0327    1.3119   -2.9774 H   0  0  0  0  0  0  0  0  0  0  0  0
   -4.6534    0.4758   -3.5149 H   0  0  0  0  0  0  0  0  0  0  0  0
   -4.0942    2.1789   -3.5334 H   0  0  0  0  0  0  0  0  0  0  0  0
   -5.8264    0.3786   -0.3170 H   0  0  0  0  0  0  0  0  0  0  0  0
   -5.1919   -0.4692   -1.7251 H   0  0  0  0  0  0  0  0  0  0  0  0
   -3.4917   -0.8348   -0.3971 H   0  0  0  0  0  0  0  0  0  0  0  0
   -3.8486    0.6373    0.6915 H   0  0  0  0  0  0  0  0  0  0  0  0
   -1.9117   -1.8054    1.1350 H   0  0  0  0  0  0  0  0  0  0  0  0
   -3.0743   -2.4655    3.1504 H   0  0  0  0  0  0  0  0  0  0  0  0
   -2.5219    1.4444    4.7212 H   0  0  0  0  0  0  0  0  0  0  0  0
   -1.3415    2.1046    2.7326 H   0  0  0  0  0  0  0  0  0  0  0  0
  1  2  1  0
  2  3  1  0
  3  4  2  0
  4  5  1  0
  5  6  2  0
  6  7  1  0
  7  8  2  0
  6  9  1  0
  9 10  1  0
  9 11  1  0
 11 12  1  0
 12 13  1  0
 13 14  1  0
 13 15  1  0
  9 16  1  0
 16 17  1  0
 17 18  1  0
 18 19  1  0
 19 20  1  0
 20 21  1  0
 21 22  1  0
 22 23  1  0
 16 24  1  0
 24 25  2  0
 25 26  1  0
 26 27  2  0
 27 28  1  0
 27 29  1  0
 29 30  2  0
  8  3  1  0
 23 18  1  0
 30 24  1  0
  1 31  1  0
  1 32  1  0
  1 33  1  0
  4 34  1  0
  5 35  1  0
  7 36  1  0
  8 37  1  0
 10 38  1  0
 11 39  1  0
 11 40  1  0
 12 41  1  0
 12 42  1  0
 13 43  1  0
 14 44  1  0
 14 45  1  0
 14 46  1  0
 15 47  1  0
 15 48  1  0
 15 49  1  0
 16 50  1  0
 17 51  1  0
 17 52  1  0
 19 53  1  0
 19 54  1  0
 20 55  1  0
 20 56  1  0
 22 57  1  0
 22 58  1  0
 23 59  1  0
 23 60  1  0
 25 61  1  0
 26 62  1  0
 29 63  1  0
 30 64  1  0
M  END
>  <Batch_No>  (306) 
D163-0036

>  <EC50_nM>  (306) 
ND

>  <Set>  (306) 
Probe-like

>  <Molecular_Weight>  (306) 
431.99535

>  <ALogP>  (306) 
5.164

$$$$
MMV006764
     RDKit          3D

 49 50  0  0  0  0  0  0  0  0999 V2000
    5.4965   -2.3559   -0.4413 C   0  0  0  0  0  0  0  0  0  0  0  0
    4.1331   -1.9810    0.1117 C   0  0  0  0  0  0  0  0  0  0  0  0
    3.4588   -1.1774   -0.8445 O   0  0  0  0  0  0  0  0  0  0  0  0
    2.1760   -0.6959   -0.5800 C   0  0  0  0  0  0  0  0  0  0  0  0
    1.1083   -1.4812   -0.9640 C   0  0  0  0  0  0  0  0  0  0  0  0
    1.4190   -3.1584   -1.8230 Br  0  0  0  0  0  0  0  0  0  0  0  0
   -0.1872   -1.0649   -0.7326 C   0  0  0  0  0  0  0  0  0  0  0  0
   -0.3530    0.1608   -0.1059 C   0  0  0  0  0  0  0  0  0  0  0  0
    0.7164    0.9433    0.2767 C   0  0  0  0  0  0  0  0  0  0  0  0
    2.0007    0.5343    0.0492 C   0  0  0  0  0  0  0  0  0  0  0  0
    3.1350    1.2271    0.3850 O   0  0  0  0  0  0  0  0  0  0  0  0
    3.1996    2.4780    1.0219 C   0  0  0  0  0  0  0  0  0  0  0  0
   -1.7734    0.5810    0.1285 C   0  0  0  0  0  0  0  0  0  0  0  0
   -2.5011    0.7075   -1.1586 C   0  0  0  0  0  0  0  0  0  0  0  0
   -3.6339    0.0817   -1.4278 C   0  0  0  0  0  0  0  0  0  0  0  0
   -4.2192   -0.7704   -0.4523 N   0  0  0  0  0  0  0  0  0  0  0  0
   -5.4605   -1.4544   -0.7513 C   0  0  0  0  0  0  0  0  0  0  0  0
   -3.5930   -0.9536    0.8118 C   0  0  0  0  0  0  0  0  0  0  0  0
   -2.4598   -0.3215    1.0682 C   0  0  0  0  0  0  0  0  0  0  0  0
   -1.8446   -0.5330    2.3775 C   0  0  0  0  0  0  0  0  0  0  0  0
   -2.3763   -1.2925    3.2341 O   0  0  0  0  0  0  0  0  0  0  0  0
   -0.6562    0.0800    2.7515 O   0  0  0  0  0  0  0  0  0  0  0  0
   -0.0212   -0.0901    4.0018 C   0  0  0  0  0  0  0  0  0  0  0  0
   -1.9325    1.5732   -2.1868 C   0  0  0  0  0  0  0  0  0  0  0  0
   -2.5540    1.6814   -3.2865 O   0  0  0  0  0  0  0  0  0  0  0  0
   -0.7495    2.2672   -1.9911 O   0  0  0  0  0  0  0  0  0  0  0  0
   -0.1703    3.1129   -2.9620 C   0  0  0  0  0  0  0  0  0  0  0  0
    5.4386   -3.2815   -1.0687 H   0  0  0  0  0  0  0  0  0  0  0  0
    6.2219   -2.5169    0.4018 H   0  0  0  0  0  0  0  0  0  0  0  0
    5.9284   -1.5516   -1.0550 H   0  0  0  0  0  0  0  0  0  0  0  0
    3.5905   -2.9193    0.3253 H   0  0  0  0  0  0  0  0  0  0  0  0
    4.2543   -1.4371    1.0729 H   0  0  0  0  0  0  0  0  0  0  0  0
   -1.0110   -1.6854   -1.0364 H   0  0  0  0  0  0  0  0  0  0  0  0
    0.5462    1.8819    0.7571 H   0  0  0  0  0  0  0  0  0  0  0  0
    2.2245    2.8957    1.2943 H   0  0  0  0  0  0  0  0  0  0  0  0
    3.7625    2.3660    1.9717 H   0  0  0  0  0  0  0  0  0  0  0  0
    3.7844    3.2052    0.3993 H   0  0  0  0  0  0  0  0  0  0  0  0
   -1.7451    1.5887    0.6410 H   0  0  0  0  0  0  0  0  0  0  0  0
   -4.1434    0.1934   -2.3776 H   0  0  0  0  0  0  0  0  0  0  0  0
   -6.1369   -0.7869   -1.3507 H   0  0  0  0  0  0  0  0  0  0  0  0
   -5.2473   -2.3216   -1.4069 H   0  0  0  0  0  0  0  0  0  0  0  0
   -6.0318   -1.6987    0.1549 H   0  0  0  0  0  0  0  0  0  0  0  0
   -4.0644   -1.6157    1.5467 H   0  0  0  0  0  0  0  0  0  0  0  0
    0.5070    0.8562    4.2487 H   0  0  0  0  0  0  0  0  0  0  0  0
    0.7032   -0.9033    4.0474 H   0  0  0  0  0  0  0  0  0  0  0  0
   -0.8222   -0.3099    4.7618 H   0  0  0  0  0  0  0  0  0  0  0  0
    0.9134    3.1902   -2.8870 H   0  0  0  0  0  0  0  0  0  0  0  0
   -0.3906    2.6397   -3.9628 H   0  0  0  0  0  0  0  0  0  0  0  0
   -0.6400    4.1125   -2.9879 H   0  0  0  0  0  0  0  0  0  0  0  0
  1  2  1  0
  2  3  1  0
  3  4  1  0
  4  5  2  0
  5  6  1  0
  5  7  1  0
  7  8  2  0
  8  9  1  0
  9 10  2  0
 10 11  1  0
 11 12  1  0
  8 13  1  0
 13 14  1  0
 14 15  2  0
 15 16  1  0
 16 17  1  0
 16 18  1  0
 18 19  2  0
 19 20  1  0
 20 21  2  0
 20 22  1  0
 22 23  1  0
 14 24  1  0
 24 25  2  0
 24 26  1  0
 26 27  1  0
 10  4  1  0
 19 13  1  0
  1 28  1  0
  1 29  1  0
  1 30  1  0
  2 31  1  0
  2 32  1  0
  7 33  1  0
  9 34  1  0
 12 35  1  0
 12 36  1  0
 12 37  1  0
 13 38  1  0
 15 39  1  0
 17 40  1  0
 17 41  1  0
 17 42  1  0
 18 43  1  0
 23 44  1  0
 23 45  1  0
 23 46  1  0
 27 47  1  0
 27 48  1  0
 27 49  1  0
M  END
>  <Batch_No>  (307) 
K837-1178

>  <EC50_nM>  (307) 
511.5

>  <Set>  (307) 
Probe-like

>  <Molecular_Weight>  (307) 
440.28507

>  <ALogP>  (307) 
2.444

$$$$
MMV007275
     RDKit          3D

 41 43  0  0  0  0  0  0  0  0999 V2000
    3.5047   -1.8211    0.1406 C   0  0  0  0  0  0  0  0  0  0  0  0
    3.9121   -0.5211    0.7538 C   0  0  0  0  0  0  0  0  0  0  0  0
    4.8639   -0.5144    1.7612 C   0  0  0  0  0  0  0  0  0  0  0  0
    5.2594    0.6872    2.3482 C   0  0  0  0  0  0  0  0  0  0  0  0
    4.6939    1.8879    1.9188 C   0  0  0  0  0  0  0  0  0  0  0  0
    5.0658    3.0650    2.4773 F   0  0  0  0  0  0  0  0  0  0  0  0
    3.7365    1.8946    0.9074 C   0  0  0  0  0  0  0  0  0  0  0  0
    3.3672    0.6813    0.3466 C   0  0  0  0  0  0  0  0  0  0  0  0
    2.3831    0.6118   -0.7038 N   0  0  0  0  0  0  0  0  0  0  0  0
    1.0248    0.4585   -0.2948 C   0  0  0  0  0  0  0  0  0  0  0  0
    0.8574    0.4030    0.9460 O   0  0  0  0  0  0  0  0  0  0  0  0
   -0.0244    0.3805   -1.2926 C   0  0  0  0  0  0  0  0  0  0  0  0
    0.3035    0.4411   -2.6350 C   0  0  0  0  0  0  0  0  0  0  0  0
   -0.6506    0.3666   -3.6436 C   0  0  0  0  0  0  0  0  0  0  0  0
   -0.1907    0.4471   -5.3319 Cl  0  0  0  0  0  0  0  0  0  0  0  0
   -1.9805    0.2277   -3.3484 C   0  0  0  0  0  0  0  0  0  0  0  0
   -2.3167    0.1666   -1.9988 C   0  0  0  0  0  0  0  0  0  0  0  0
   -1.3639    0.2405   -0.9952 C   0  0  0  0  0  0  0  0  0  0  0  0
   -1.8280    0.1440    0.3367 N   0  0  0  0  0  0  0  0  0  0  0  0
   -3.2077   -0.1140    0.6643 C   0  0  0  0  0  0  0  0  0  0  0  0
   -3.8905    0.7074    1.5443 C   0  0  0  0  0  0  0  0  0  0  0  0
   -5.1988    0.4887    1.9183 C   0  0  0  0  0  0  0  0  0  0  0  0
   -5.8282   -0.6089    1.3717 C   0  0  0  0  0  0  0  0  0  0  0  0
   -5.2118   -1.4666    0.4925 C   0  0  0  0  0  0  0  0  0  0  0  0
   -3.9017   -1.1903    0.1602 C   0  0  0  0  0  0  0  0  0  0  0  0
    3.0088   -1.6987   -0.8188 H   0  0  0  0  0  0  0  0  0  0  0  0
    4.4394   -2.4104   -0.0770 H   0  0  0  0  0  0  0  0  0  0  0  0
    2.9209   -2.3588    0.9114 H   0  0  0  0  0  0  0  0  0  0  0  0
    5.2921   -1.4666    2.0803 H   0  0  0  0  0  0  0  0  0  0  0  0
    6.0069    0.7024    3.1406 H   0  0  0  0  0  0  0  0  0  0  0  0
    3.2822    2.8254    0.5577 H   0  0  0  0  0  0  0  0  0  0  0  0
    2.7204    0.6768   -1.6715 H   0  0  0  0  0  0  0  0  0  0  0  0
    1.3239    0.5506   -2.9979 H   0  0  0  0  0  0  0  0  0  0  0  0
   -2.7098    0.1711   -4.1392 H   0  0  0  0  0  0  0  0  0  0  0  0
   -3.3802    0.0733   -1.8078 H   0  0  0  0  0  0  0  0  0  0  0  0
   -1.2303    0.2531    1.1927 H   0  0  0  0  0  0  0  0  0  0  0  0
   -3.3260    1.5566    1.9355 H   0  0  0  0  0  0  0  0  0  0  0  0
   -5.6866    1.1617    2.6100 H   0  0  0  0  0  0  0  0  0  0  0  0
   -6.8621   -0.7646    1.6795 H   0  0  0  0  0  0  0  0  0  0  0  0
   -5.7461   -2.3124    0.0914 H   0  0  0  0  0  0  0  0  0  0  0  0
   -3.4327   -1.8922   -0.5307 H   0  0  0  0  0  0  0  0  0  0  0  0
  1  2  1  0
  2  3  2  0
  3  4  1  0
  4  5  2  0
  5  6  1  0
  5  7  1  0
  7  8  2  0
  8  9  1  0
  9 10  1  0
 10 11  2  0
 10 12  1  0
 12 13  2  0
 13 14  1  0
 14 15  1  0
 14 16  2  0
 16 17  1  0
 17 18  2  0
 18 19  1  0
 19 20  1  0
 20 21  2  0
 21 22  1  0
 22 23  2  0
 23 24  1  0
 24 25  2  0
  8  2  1  0
 18 12  1  0
 25 20  1  0
  1 26  1  0
  1 27  1  0
  1 28  1  0
  3 29  1  0
  4 30  1  0
  7 31  1  0
  9 32  1  0
 13 33  1  0
 16 34  1  0
 17 35  1  0
 19 36  1  0
 21 37  1  0
 22 38  1  0
 23 39  1  0
 24 40  1  0
 25 41  1  0
M  END
>  <Batch_No>  (308) 
3825-7149

>  <EC50_nM>  (308) 
539

>  <Set>  (308) 
Probe-like

>  <Molecular_Weight>  (308) 
354.80524

>  <ALogP>  (308) 
5.52

$$$$
MMV007273
     RDKit          3D

 59 63  0  0  0  0  0  0  0  0999 V2000
   -2.8515    5.1572    0.3972 C   0  0  0  0  0  0  0  0  0  0  0  0
   -4.0132    4.6110   -0.1524 O   0  0  0  0  0  0  0  0  0  0  0  0
   -4.1871    3.2742   -0.4430 C   0  0  0  0  0  0  0  0  0  0  0  0
   -3.1940    2.3484   -0.2044 C   0  0  0  0  0  0  0  0  0  0  0  0
   -3.3484    1.0103   -0.4875 C   0  0  0  0  0  0  0  0  0  0  0  0
   -4.5336    0.5963   -1.0242 C   0  0  0  0  0  0  0  0  0  0  0  0
   -5.5350    1.5142   -1.2673 C   0  0  0  0  0  0  0  0  0  0  0  0
   -6.7544    1.1104   -1.8158 O   0  0  0  0  0  0  0  0  0  0  0  0
   -6.8982   -0.2772   -2.1028 C   0  0  0  0  0  0  0  0  0  0  0  0
   -5.3846    2.8563   -0.9852 C   0  0  0  0  0  0  0  0  0  0  0  0
   -6.3816    3.7981   -1.2225 O   0  0  0  0  0  0  0  0  0  0  0  0
   -2.2830    0.0321   -0.2302 C   0  0  0  0  0  0  0  0  0  0  0  0
   -1.0979    0.3489    0.2882 N   0  0  0  0  0  0  0  0  0  0  0  0
   -0.3164   -0.7398    0.4144 C   0  0  0  0  0  0  0  0  0  0  0  0
    1.0407   -0.7357    0.9468 C   0  0  0  0  0  0  0  0  0  0  0  0
    1.9724    0.0249    0.2712 C   0  0  0  0  0  0  0  0  0  0  0  0
    3.2935    0.1250    0.6556 C   0  0  0  0  0  0  0  0  0  0  0  0
    3.6668   -0.5968    1.7934 C   0  0  0  0  0  0  0  0  0  0  0  0
    5.3817   -0.5108    2.3506 S   0  0  0  0  0  0  0  0  0  0  0  0
    6.2349    0.5776    1.1934 C   0  0  0  0  0  0  0  0  0  0  0  0
    6.8412    0.0914    0.0521 C   0  0  0  0  0  0  0  0  0  0  0  0
    7.4911    0.9321   -0.8253 C   0  0  0  0  0  0  0  0  0  0  0  0
    7.5213    2.2791   -0.5339 C   0  0  0  0  0  0  0  0  0  0  0  0
    6.9347    2.8213    0.5885 C   0  0  0  0  0  0  0  0  0  0  0  0
    6.2823    1.9500    1.4624 C   0  0  0  0  0  0  0  0  0  0  0  0
    2.7301   -1.3652    2.4779 C   0  0  0  0  0  0  0  0  0  0  0  0
    1.4177   -1.4446    2.0685 C   0  0  0  0  0  0  0  0  0  0  0  0
   -1.0741   -1.7917   -0.0581 C   0  0  0  0  0  0  0  0  0  0  0  0
   -2.2748   -1.2889   -0.4464 N   0  0  0  0  0  0  0  0  0  0  0  0
   -0.6131   -3.1770   -0.1065 C   0  0  0  0  0  0  0  0  0  0  0  0
   -1.2531   -4.1839    0.5870 C   0  0  0  0  0  0  0  0  0  0  0  0
   -0.7358   -5.4583    0.4731 C   0  0  0  0  0  0  0  0  0  0  0  0
    0.3737   -5.7346   -0.2968 C   0  0  0  0  0  0  0  0  0  0  0  0
    1.0041   -4.7186   -0.9850 C   0  0  0  0  0  0  0  0  0  0  0  0
    0.5126   -3.4198   -0.8955 C   0  0  0  0  0  0  0  0  0  0  0  0
   -1.9515    4.6520    0.0016 H   0  0  0  0  0  0  0  0  0  0  0  0
   -2.7313    6.2302    0.1502 H   0  0  0  0  0  0  0  0  0  0  0  0
   -2.8408    5.0744    1.5208 H   0  0  0  0  0  0  0  0  0  0  0  0
   -2.2440    2.6454    0.2199 H   0  0  0  0  0  0  0  0  0  0  0  0
   -4.6490   -0.4604   -1.2449 H   0  0  0  0  0  0  0  0  0  0  0  0
   -6.0317   -0.6019   -2.7449 H   0  0  0  0  0  0  0  0  0  0  0  0
   -7.8132   -0.4741   -2.6997 H   0  0  0  0  0  0  0  0  0  0  0  0
   -6.9062   -0.9121   -1.1993 H   0  0  0  0  0  0  0  0  0  0  0  0
   -7.0716    4.0079   -0.4840 H   0  0  0  0  0  0  0  0  0  0  0  0
    1.6932    0.5913   -0.6160 H   0  0  0  0  0  0  0  0  0  0  0  0
    3.9983    0.7304    0.1032 H   0  0  0  0  0  0  0  0  0  0  0  0
    6.7822   -0.9704   -0.1184 H   0  0  0  0  0  0  0  0  0  0  0  0
    7.9678    0.5601   -1.7197 H   0  0  0  0  0  0  0  0  0  0  0  0
    8.0294    2.9409   -1.2188 H   0  0  0  0  0  0  0  0  0  0  0  0
    6.9884    3.8776    0.7667 H   0  0  0  0  0  0  0  0  0  0  0  0
    5.7999    2.3400    2.3711 H   0  0  0  0  0  0  0  0  0  0  0  0
    3.0723   -1.9059    3.3553 H   0  0  0  0  0  0  0  0  0  0  0  0
    0.6845   -2.0397    2.5954 H   0  0  0  0  0  0  0  0  0  0  0  0
   -3.0743   -1.8491   -0.8535 H   0  0  0  0  0  0  0  0  0  0  0  0
   -2.1283   -3.9486    1.1904 H   0  0  0  0  0  0  0  0  0  0  0  0
   -1.2319   -6.2761    1.0184 H   0  0  0  0  0  0  0  0  0  0  0  0
    0.7933   -6.7274   -0.3981 H   0  0  0  0  0  0  0  0  0  0  0  0
    1.8920   -4.8963   -1.6101 H   0  0  0  0  0  0  0  0  0  0  0  0
    1.0033   -2.6040   -1.4364 H   0  0  0  0  0  0  0  0  0  0  0  0
  1  2  1  0
  2  3  1  0
  3  4  2  0
  4  5  1  0
  5  6  2  0
  6  7  1  0
  7  8  1  0
  8  9  1  0
  7 10  2  0
 10 11  1  0
  5 12  1  0
 12 13  2  0
 13 14  1  0
 14 15  1  0
 15 16  2  0
 16 17  1  0
 17 18  2  0
 18 19  1  0
 19 20  1  0
 20 21  2  0
 21 22  1  0
 22 23  2  0
 23 24  1  0
 24 25  2  0
 18 26  1  0
 26 27  2  0
 14 28  2  0
 28 29  1  0
 28 30  1  0
 30 31  2  0
 31 32  1  0
 32 33  2  0
 33 34  1  0
 34 35  2  0
 10  3  1  0
 29 12  1  0
 27 15  1  0
 25 20  1  0
 35 30  1  0
  1 36  1  0
  1 37  1  0
  1 38  1  0
  4 39  1  0
  6 40  1  0
  9 41  1  0
  9 42  1  0
  9 43  1  0
 11 44  1  0
 16 45  1  0
 17 46  1  0
 21 47  1  0
 22 48  1  0
 23 49  1  0
 24 50  1  0
 25 51  1  0
 26 52  1  0
 27 53  1  0
 29 54  1  0
 31 55  1  0
 32 56  1  0
 33 57  1  0
 34 58  1  0
 35 59  1  0
M  END
>  <Batch_No>  (309) 
STK761550

>  <EC50_nM>  (309) 
350

>  <Set>  (309) 
Probe-like

>  <Molecular_Weight>  (309) 
480.57746

>  <ALogP>  (309) 
7.242

$$$$
MMV666026
     RDKit          3D

 34 37  0  0  0  0  0  0  0  0999 V2000
    6.9179    0.3446   -0.0548 C   0  0  0  0  0  0  0  0  0  0  0  0
    5.9923    0.0592    0.9636 O   0  0  0  0  0  0  0  0  0  0  0  0
    4.6284    0.0539    0.7268 C   0  0  0  0  0  0  0  0  0  0  0  0
    4.0835    0.3255   -0.5132 C   0  0  0  0  0  0  0  0  0  0  0  0
    2.7083    0.3050   -0.6886 C   0  0  0  0  0  0  0  0  0  0  0  0
    1.8460    0.0183    0.3472 C   0  0  0  0  0  0  0  0  0  0  0  0
    2.3906   -0.2529    1.5851 C   0  0  0  0  0  0  0  0  0  0  0  0
    3.7689   -0.2302    1.7523 C   0  0  0  0  0  0  0  0  0  0  0  0
    0.4337    0.0185    0.0780 C   0  0  0  0  0  0  0  0  0  0  0  0
   -0.5397   -0.2500    1.0168 C   0  0  0  0  0  0  0  0  0  0  0  0
   -1.8867   -0.2330    0.6896 C   0  0  0  0  0  0  0  0  0  0  0  0
   -3.1232   -0.4653    1.4271 C   0  0  0  0  0  0  0  0  0  0  0  0
   -3.1997   -0.7577    2.6359 O   0  0  0  0  0  0  0  0  0  0  0  0
   -4.2475   -0.3004    0.5234 C   0  0  0  0  0  0  0  0  0  0  0  0
   -5.6245   -0.3847    0.6148 C   0  0  0  0  0  0  0  0  0  0  0  0
   -6.4658   -0.1680   -0.4520 C   0  0  0  0  0  0  0  0  0  0  0  0
   -5.9301    0.1540   -1.6975 C   0  0  0  0  0  0  0  0  0  0  0  0
   -4.5540    0.2451   -1.8172 C   0  0  0  0  0  0  0  0  0  0  0  0
   -3.7255    0.0224   -0.7280 C   0  0  0  0  0  0  0  0  0  0  0  0
   -2.2633    0.0609   -0.6113 C   0  0  0  0  0  0  0  0  0  0  0  0
   -1.2838    0.3171   -1.4975 N   0  0  0  0  0  0  0  0  0  0  0  0
    0.0165    0.2975   -1.1686 N   0  0  0  0  0  0  0  0  0  0  0  0
    7.0369    1.4258   -0.2473 H   0  0  0  0  0  0  0  0  0  0  0  0
    7.9122   -0.0794    0.2571 H   0  0  0  0  0  0  0  0  0  0  0  0
    6.6306   -0.1530   -1.0142 H   0  0  0  0  0  0  0  0  0  0  0  0
    4.7415    0.5525   -1.3379 H   0  0  0  0  0  0  0  0  0  0  0  0
    2.3538    0.5273   -1.6860 H   0  0  0  0  0  0  0  0  0  0  0  0
    1.7519   -0.4780    2.4055 H   0  0  0  0  0  0  0  0  0  0  0  0
    4.1901   -0.4444    2.7283 H   0  0  0  0  0  0  0  0  0  0  0  0
   -0.2500   -0.4751    2.0134 H   0  0  0  0  0  0  0  0  0  0  0  0
   -6.0359   -0.6345    1.5817 H   0  0  0  0  0  0  0  0  0  0  0  0
   -7.5412   -0.2438   -0.3388 H   0  0  0  0  0  0  0  0  0  0  0  0
   -6.5828    0.3275   -2.5471 H   0  0  0  0  0  0  0  0  0  0  0  0
   -4.1495    0.4953   -2.7873 H   0  0  0  0  0  0  0  0  0  0  0  0
  1  2  1  0
  2  3  1  0
  3  4  2  0
  4  5  1  0
  5  6  2  0
  6  7  1  0
  7  8  2  0
  6  9  1  0
  9 10  2  0
 10 11  1  0
 11 12  1  0
 12 13  2  0
 12 14  1  0
 14 15  2  0
 15 16  1  0
 16 17  2  0
 17 18  1  0
 18 19  2  0
 19 20  1  0
 20 21  1  0
 21 22  2  0
  8  3  1  0
 22  9  1  0
 20 11  2  0
 19 14  1  0
  1 23  1  0
  1 24  1  0
  1 25  1  0
  4 26  1  0
  5 27  1  0
  7 28  1  0
  8 29  1  0
 10 30  1  0
 15 31  1  0
 16 32  1  0
 17 33  1  0
 18 34  1  0
M  END
>  <Batch_No>  (310) 
5215437

>  <EC50_nM>  (310) 
ND

>  <Set>  (310) 
Probe-like

>  <Molecular_Weight>  (310) 
288.30008

>  <ALogP>  (310) 
3.663

$$$$
MMV665923
     RDKit          3D

 30 32  0  0  0  0  0  0  0  0999 V2000
   -3.6506   -1.5957   -2.2161 F   0  0  0  0  0  0  0  0  0  0  0  0
   -4.2384   -0.5255   -1.5934 C   0  0  0  0  0  0  0  0  0  0  0  0
   -5.4861   -0.8458   -1.0922 F   0  0  0  0  0  0  0  0  0  0  0  0
   -4.3467    0.4817   -2.5557 F   0  0  0  0  0  0  0  0  0  0  0  0
   -3.4146    0.0075   -0.4681 C   0  0  0  0  0  0  0  0  0  0  0  0
   -3.9678    0.4065    0.7307 C   0  0  0  0  0  0  0  0  0  0  0  0
   -3.1213    0.8873    1.7143 C   0  0  0  0  0  0  0  0  0  0  0  0
   -1.7556    0.9848    1.5497 C   0  0  0  0  0  0  0  0  0  0  0  0
   -1.2384    0.5762    0.3369 C   0  0  0  0  0  0  0  0  0  0  0  0
   -2.0545    0.0840   -0.6854 C   0  0  0  0  0  0  0  0  0  0  0  0
    0.1580    0.6246    0.0363 N   0  0  0  0  0  0  0  0  0  0  0  0
    0.6982    1.7033   -0.5061 N   0  0  0  0  0  0  0  0  0  0  0  0
    1.9779    1.8250   -0.8127 N   0  0  0  0  0  0  0  0  0  0  0  0
    2.8199    0.8037   -0.5716 C   0  0  0  0  0  0  0  0  0  0  0  0
    4.1510    0.9630   -0.9036 C   0  0  0  0  0  0  0  0  0  0  0  0
    5.0309   -0.0783   -0.6621 C   0  0  0  0  0  0  0  0  0  0  0  0
    4.5301   -1.2354   -0.0962 C   0  0  0  0  0  0  0  0  0  0  0  0
    3.1990   -1.3870    0.2328 C   0  0  0  0  0  0  0  0  0  0  0  0
    2.3196   -0.3513   -0.0066 C   0  0  0  0  0  0  0  0  0  0  0  0
    0.9739   -0.4145    0.2897 C   0  0  0  0  0  0  0  0  0  0  0  0
    0.5303   -1.4914    0.8120 N   0  0  0  0  0  0  0  0  0  0  0  0
   -5.0440    0.3315    0.8651 H   0  0  0  0  0  0  0  0  0  0  0  0
   -3.5729    1.1910    2.6363 H   0  0  0  0  0  0  0  0  0  0  0  0
   -1.0873    1.3596    2.3140 H   0  0  0  0  0  0  0  0  0  0  0  0
   -1.6288   -0.2310   -1.6284 H   0  0  0  0  0  0  0  0  0  0  0  0
    4.4936    1.9077   -1.3524 H   0  0  0  0  0  0  0  0  0  0  0  0
    6.0793    0.0100   -0.9087 H   0  0  0  0  0  0  0  0  0  0  0  0
    5.2713   -2.0290    0.0737 H   0  0  0  0  0  0  0  0  0  0  0  0
    2.8386   -2.3039    0.6740 H   0  0  0  0  0  0  0  0  0  0  0  0
   -0.4645   -1.6585    1.0794 H   0  0  0  0  0  0  0  0  0  0  0  0
  1  2  1  0
  2  3  1  0
  2  4  1  0
  2  5  1  0
  5  6  2  0
  6  7  1  0
  7  8  2  0
  8  9  1  0
  9 10  2  0
  9 11  1  0
 11 12  1  0
 12 13  2  0
 13 14  1  0
 14 15  2  0
 15 16  1  0
 16 17  2  0
 17 18  1  0
 18 19  2  0
 19 20  1  0
 20 21  2  3
 10  5  1  0
 20 11  1  0
 19 14  1  0
  6 22  1  0
  7 23  1  0
  8 24  1  0
 10 25  1  0
 15 26  1  0
 16 27  1  0
 17 28  1  0
 18 29  1  0
 21 30  1  0
M  END
>  <Batch_No>  (311) 
1L-305S

>  <EC50_nM>  (311) 
ND

>  <Set>  (311) 
Probe-like

>  <Molecular_Weight>  (311) 
290.24326

>  <ALogP>  (311) 
4.405

$$$$
MMV666025
     RDKit          3D

 44 48  0  0  0  0  0  0  0  0999 V2000
    0.8450    0.4532    0.5887 O   0  0  0  0  0  0  0  0  0  0  0  0
    0.7196   -0.4964   -0.3929 C   0  0  0  0  0  0  0  0  0  0  0  0
    1.9992   -0.7430   -1.1530 C   0  0  0  0  0  0  0  0  0  0  0  0
    3.0901   -1.1972   -0.3455 N   0  0  0  0  0  0  0  0  0  0  0  0
    3.4178   -2.4266   -0.0554 N   0  0  0  0  0  0  0  0  0  0  0  0
    4.4979   -2.4837    0.7271 N   0  0  0  0  0  0  0  0  0  0  0  0
    4.8767   -1.2154    0.9454 C   0  0  0  0  0  0  0  0  0  0  0  0
    5.9057   -0.6218    1.6627 C   0  0  0  0  0  0  0  0  0  0  0  0
    6.0458    0.7563    1.7039 C   0  0  0  0  0  0  0  0  0  0  0  0
    5.1613    1.5996    1.0285 C   0  0  0  0  0  0  0  0  0  0  0  0
    4.1525    0.9758    0.3272 C   0  0  0  0  0  0  0  0  0  0  0  0
    3.9966   -0.3936    0.2741 C   0  0  0  0  0  0  0  0  0  0  0  0
   -0.3252   -0.1528   -1.4266 C   0  0  0  0  0  0  0  0  0  0  0  0
   -1.6417    0.0011   -0.8799 N   0  0  0  0  0  0  0  0  0  0  0  0
   -2.5713   -0.9841   -0.7355 C   0  0  0  0  0  0  0  0  0  0  0  0
   -2.5724   -2.3311   -1.0326 C   0  0  0  0  0  0  0  0  0  0  0  0
   -3.6611   -3.1512   -0.7898 C   0  0  0  0  0  0  0  0  0  0  0  0
   -4.7905   -2.5926   -0.2266 C   0  0  0  0  0  0  0  0  0  0  0  0
   -6.3244   -3.6980    0.1266 Br  0  0  0  0  0  0  0  0  0  0  0  0
   -4.8107   -1.2492    0.0780 C   0  0  0  0  0  0  0  0  0  0  0  0
   -3.6994   -0.4451   -0.1772 C   0  0  0  0  0  0  0  0  0  0  0  0
   -3.4681    0.9174    0.0337 C   0  0  0  0  0  0  0  0  0  0  0  0
   -4.2602    1.9154    0.5626 C   0  0  0  0  0  0  0  0  0  0  0  0
   -3.7215    3.1949    0.6354 C   0  0  0  0  0  0  0  0  0  0  0  0
   -4.7666    4.6169    1.3564 Br  0  0  0  0  0  0  0  0  0  0  0  0
   -2.4435    3.4798    0.2006 C   0  0  0  0  0  0  0  0  0  0  0  0
   -1.6700    2.4606   -0.3257 C   0  0  0  0  0  0  0  0  0  0  0  0
   -2.1725    1.1655   -0.4160 C   0  0  0  0  0  0  0  0  0  0  0  0
    0.7297    0.0752    1.5150 H   0  0  0  0  0  0  0  0  0  0  0  0
    0.4266   -1.4550    0.0810 H   0  0  0  0  0  0  0  0  0  0  0  0
    1.7850   -1.4151   -2.0025 H   0  0  0  0  0  0  0  0  0  0  0  0
    2.2954    0.2327   -1.6086 H   0  0  0  0  0  0  0  0  0  0  0  0
    6.6188   -1.2569    2.2052 H   0  0  0  0  0  0  0  0  0  0  0  0
    6.8694    1.1932    2.2796 H   0  0  0  0  0  0  0  0  0  0  0  0
    5.2581    2.6744    1.0517 H   0  0  0  0  0  0  0  0  0  0  0  0
    3.4536    1.6145   -0.2052 H   0  0  0  0  0  0  0  0  0  0  0  0
    0.0103    0.8168   -1.8948 H   0  0  0  0  0  0  0  0  0  0  0  0
   -0.2895   -0.9203   -2.2244 H   0  0  0  0  0  0  0  0  0  0  0  0
   -1.6713   -2.7445   -1.4748 H   0  0  0  0  0  0  0  0  0  0  0  0
   -3.6496   -4.2205   -1.0304 H   0  0  0  0  0  0  0  0  0  0  0  0
   -5.6874   -0.7988    0.5188 H   0  0  0  0  0  0  0  0  0  0  0  0
   -5.2798    1.7127    0.9148 H   0  0  0  0  0  0  0  0  0  0  0  0
   -2.0307    4.4861    0.2621 H   0  0  0  0  0  0  0  0  0  0  0  0
   -0.6479    2.6510   -0.6817 H   0  0  0  0  0  0  0  0  0  0  0  0
  1  2  1  0
  2  3  1  0
  3  4  1  0
  4  5  1  0
  5  6  2  0
  6  7  1  0
  7  8  2  0
  8  9  1  0
  9 10  2  0
 10 11  1  0
 11 12  2  0
  2 13  1  0
 13 14  1  0
 14 15  1  0
 15 16  2  0
 16 17  1  0
 17 18  2  0
 18 19  1  0
 18 20  1  0
 20 21  2  0
 21 22  1  0
 22 23  2  0
 23 24  1  0
 24 25  1  0
 24 26  2  0
 26 27  1  0
 27 28  2  0
 12  4  1  0
 12  7  1  0
 28 14  1  0
 21 15  1  0
 28 22  1  0
  1 29  1  0
  2 30  1  0
  3 31  1  0
  3 32  1  0
  8 33  1  0
  9 34  1  0
 10 35  1  0
 11 36  1  0
 13 37  1  0
 13 38  1  0
 16 39  1  0
 17 40  1  0
 20 41  1  0
 23 42  1  0
 26 43  1  0
 27 44  1  0
M  END
>  <Batch_No>  (312) 
5657779

>  <EC50_nM>  (312) 
1260

>  <Set>  (312) 
Probe-like

>  <Molecular_Weight>  (312) 
500.1859

>  <ALogP>  (312) 
5.974

$$$$
MMV666060
     RDKit          3D

 50 52  0  0  0  0  0  0  0  0999 V2000
   -8.0902   -0.3831    1.2605 C   0  0  0  0  0  0  0  0  0  0  0  0
   -7.2423    0.7122    0.9890 O   0  0  0  0  0  0  0  0  0  0  0  0
   -5.9846    0.6064    0.4593 C   0  0  0  0  0  0  0  0  0  0  0  0
   -5.4536   -0.6156    0.1492 C   0  0  0  0  0  0  0  0  0  0  0  0
   -4.2000   -0.7079   -0.3780 C   0  0  0  0  0  0  0  0  0  0  0  0
   -3.4171    0.4209   -0.6199 C   0  0  0  0  0  0  0  0  0  0  0  0
   -2.0625    0.2581   -1.1966 C   0  0  0  0  0  0  0  0  0  0  0  0
   -0.9961    0.4268   -0.2279 N   0  0  0  0  0  0  0  0  0  0  0  0
   -1.0550   -0.5090    0.8623 C   0  0  0  0  0  0  0  0  0  0  0  0
    0.1450   -1.4222    0.8992 C   0  0  0  0  0  0  0  0  0  0  0  0
    1.3725   -0.5203    1.0845 C   0  0  0  0  0  0  0  0  0  0  0  0
    1.4594    0.3472   -0.1391 C   0  0  0  0  0  0  0  0  0  0  0  0
    0.2339    0.3281   -0.9832 C   0  0  0  0  0  0  0  0  0  0  0  0
    2.6145   -0.1183   -0.9516 C   0  0  0  0  0  0  0  0  0  0  0  0
    2.4281   -0.5657   -2.1357 O   0  0  0  0  0  0  0  0  0  0  0  0
    3.9737   -0.0767   -0.4249 C   0  0  0  0  0  0  0  0  0  0  0  0
    4.2787    0.4025    0.8377 C   0  0  0  0  0  0  0  0  0  0  0  0
    5.5933    0.4248    1.3079 C   0  0  0  0  0  0  0  0  0  0  0  0
    6.6325   -0.0415    0.5015 C   0  0  0  0  0  0  0  0  0  0  0  0
    6.3333   -0.5155   -0.7471 C   0  0  0  0  0  0  0  0  0  0  0  0
    5.0312   -0.5267   -1.1860 C   0  0  0  0  0  0  0  0  0  0  0  0
    8.0292   -0.0103    1.0173 C   0  0  0  0  0  0  0  0  0  0  0  0
    8.0871   -1.0069    1.9916 F   0  0  0  0  0  0  0  0  0  0  0  0
    8.2993    1.2260    1.5591 F   0  0  0  0  0  0  0  0  0  0  0  0
    8.8779   -0.3347   -0.0269 F   0  0  0  0  0  0  0  0  0  0  0  0
   -3.9641    1.6470   -0.3028 C   0  0  0  0  0  0  0  0  0  0  0  0
   -3.2305    2.8031   -0.5223 O   0  0  0  0  0  0  0  0  0  0  0  0
   -5.2508    1.7532    0.2389 C   0  0  0  0  0  0  0  0  0  0  0  0
   -7.7748   -0.8029    2.2561 H   0  0  0  0  0  0  0  0  0  0  0  0
   -9.1363   -0.0893    1.3766 H   0  0  0  0  0  0  0  0  0  0  0  0
   -8.0363   -1.2017    0.5405 H   0  0  0  0  0  0  0  0  0  0  0  0
   -6.0324   -1.5279    0.3229 H   0  0  0  0  0  0  0  0  0  0  0  0
   -3.8247   -1.7156   -0.6083 H   0  0  0  0  0  0  0  0  0  0  0  0
   -1.8719    0.9772   -2.0203 H   0  0  0  0  0  0  0  0  0  0  0  0
   -1.9582   -0.7690   -1.5870 H   0  0  0  0  0  0  0  0  0  0  0  0
   -1.0610    0.0448    1.8475 H   0  0  0  0  0  0  0  0  0  0  0  0
   -2.0188   -1.0893    0.8918 H   0  0  0  0  0  0  0  0  0  0  0  0
    0.0642   -2.0603    1.8016 H   0  0  0  0  0  0  0  0  0  0  0  0
    0.2954   -1.9758   -0.0265 H   0  0  0  0  0  0  0  0  0  0  0  0
    2.2309   -1.2222    1.1623 H   0  0  0  0  0  0  0  0  0  0  0  0
    1.2636    0.1339    1.9837 H   0  0  0  0  0  0  0  0  0  0  0  0
    1.6537    1.4206    0.1485 H   0  0  0  0  0  0  0  0  0  0  0  0
    0.1850   -0.6261   -1.5471 H   0  0  0  0  0  0  0  0  0  0  0  0
    0.2275    1.1720   -1.6930 H   0  0  0  0  0  0  0  0  0  0  0  0
    3.5137    0.7671    1.4767 H   0  0  0  0  0  0  0  0  0  0  0  0
    5.8239    0.8038    2.3013 H   0  0  0  0  0  0  0  0  0  0  0  0
    7.1192   -0.8899   -1.4094 H   0  0  0  0  0  0  0  0  0  0  0  0
    4.8046   -0.9107   -2.1921 H   0  0  0  0  0  0  0  0  0  0  0  0
   -2.2355    2.8390   -0.5019 H   0  0  0  0  0  0  0  0  0  0  0  0
   -5.6745    2.7202    0.4852 H   0  0  0  0  0  0  0  0  0  0  0  0
  1  2  1  0
  2  3  1  0
  3  4  2  0
  4  5  1  0
  5  6  2  0
  6  7  1  0
  7  8  1  0
  8  9  1  0
  9 10  1  0
 10 11  1  0
 11 12  1  0
 12 13  1  0
 12 14  1  0
 14 15  2  0
 14 16  1  0
 16 17  2  0
 17 18  1  0
 18 19  2  0
 19 20  1  0
 20 21  2  0
 19 22  1  0
 22 23  1  0
 22 24  1  0
 22 25  1  0
  6 26  1  0
 26 27  1  0
 26 28  2  0
 28  3  1  0
 13  8  1  0
 21 16  1  0
  1 29  1  0
  1 30  1  0
  1 31  1  0
  4 32  1  0
  5 33  1  0
  7 34  1  0
  7 35  1  0
  9 36  1  0
  9 37  1  0
 10 38  1  0
 10 39  1  0
 11 40  1  0
 11 41  1  0
 12 42  1  0
 13 43  1  0
 13 44  1  0
 17 45  1  0
 18 46  1  0
 20 47  1  0
 21 48  1  0
 27 49  1  0
 28 50  1  0
M  END
>  <Batch_No>  (313) 
80452216

>  <EC50_nM>  (313) 
ND

>  <Set>  (313) 
Probe-like

>  <Molecular_Weight>  (313) 
393.39948

>  <ALogP>  (313) 
4.598

$$$$
MMV666597
     RDKit          3D

 63 67  0  0  0  0  0  0  0  0999 V2000
    7.3557    2.1618    1.0457 C   0  0  0  0  0  0  0  0  0  0  0  0
    6.2313    1.2020    0.7088 C   0  0  0  0  0  0  0  0  0  0  0  0
    6.0103    1.1657   -0.7644 C   0  0  0  0  0  0  0  0  0  0  0  0
    4.9102    0.2509   -1.2254 C   0  0  0  0  0  0  0  0  0  0  0  0
    5.2186   -1.1481   -0.8158 C   0  0  0  0  0  0  0  0  0  0  0  0
    4.1569   -2.1356   -1.2504 C   0  0  0  0  0  0  0  0  0  0  0  0
    2.8216   -1.8707   -0.7109 C   0  0  0  0  0  0  0  0  0  0  0  0
    1.7801   -1.3137   -1.4398 C   0  0  0  0  0  0  0  0  0  0  0  0
    0.5366   -1.0856   -0.8765 C   0  0  0  0  0  0  0  0  0  0  0  0
   -0.5140   -0.5298   -1.5923 C   0  0  0  0  0  0  0  0  0  0  0  0
   -1.7171   -0.3406   -0.9440 C   0  0  0  0  0  0  0  0  0  0  0  0
   -1.8330   -0.7067    0.3798 C   0  0  0  0  0  0  0  0  0  0  0  0
   -2.9601   -0.5203    0.9572 N   0  0  0  0  0  0  0  0  0  0  0  0
   -3.2517   -0.8385    2.3091 C   0  0  0  0  0  0  0  0  0  0  0  0
   -2.9389   -2.1038    2.8149 C   0  0  0  0  0  0  0  0  0  0  0  0
   -3.2401   -2.3827    4.1512 C   0  0  0  0  0  0  0  0  0  0  0  0
   -3.8314   -1.4230    4.9394 C   0  0  0  0  0  0  0  0  0  0  0  0
   -4.1422   -0.1731    4.4459 C   0  0  0  0  0  0  0  0  0  0  0  0
   -3.8492    0.1216    3.1175 C   0  0  0  0  0  0  0  0  0  0  0  0
   -4.1908    1.4737    2.6024 C   0  0  0  0  0  0  0  0  0  0  0  0
   -0.8331   -1.2257    1.0282 O   0  0  0  0  0  0  0  0  0  0  0  0
    0.3509   -1.4342    0.4635 C   0  0  0  0  0  0  0  0  0  0  0  0
    1.3615   -1.9898    1.2204 C   0  0  0  0  0  0  0  0  0  0  0  0
    2.5911   -2.2029    0.6224 C   0  0  0  0  0  0  0  0  0  0  0  0
    3.5784   -2.7642    1.4231 O   0  0  0  0  0  0  0  0  0  0  0  0
   -2.8632    0.2383   -1.6351 C   0  0  0  0  0  0  0  0  0  0  0  0
   -4.0697    0.4687   -1.1186 N   0  0  0  0  0  0  0  0  0  0  0  0
   -4.8787    1.0091   -2.0385 C   0  0  0  0  0  0  0  0  0  0  0  0
   -6.1857    1.4139   -1.9887 C   0  0  0  0  0  0  0  0  0  0  0  0
   -6.8233    1.9511   -3.0791 C   0  0  0  0  0  0  0  0  0  0  0  0
   -6.0986    2.0738   -4.2459 C   0  0  0  0  0  0  0  0  0  0  0  0
   -4.7679    1.6652   -4.3082 C   0  0  0  0  0  0  0  0  0  0  0  0
   -4.1426    1.1273   -3.2023 C   0  0  0  0  0  0  0  0  0  0  0  0
   -2.9192    0.6466   -2.9156 N   0  0  0  0  0  0  0  0  0  0  0  0
    7.3780    3.0186    0.3406 H   0  0  0  0  0  0  0  0  0  0  0  0
    8.3526    1.6471    0.9219 H   0  0  0  0  0  0  0  0  0  0  0  0
    7.3115    2.5587    2.0700 H   0  0  0  0  0  0  0  0  0  0  0  0
    6.5601    0.2085    1.0711 H   0  0  0  0  0  0  0  0  0  0  0  0
    5.3454    1.4899    1.2947 H   0  0  0  0  0  0  0  0  0  0  0  0
    5.9322    2.1764   -1.2233 H   0  0  0  0  0  0  0  0  0  0  0  0
    6.9560    0.7387   -1.2117 H   0  0  0  0  0  0  0  0  0  0  0  0
    3.9072    0.6065   -0.9133 H   0  0  0  0  0  0  0  0  0  0  0  0
    4.9496    0.2696   -2.3514 H   0  0  0  0  0  0  0  0  0  0  0  0
    5.4822   -1.2790    0.2543 H   0  0  0  0  0  0  0  0  0  0  0  0
    6.1422   -1.4540   -1.3740 H   0  0  0  0  0  0  0  0  0  0  0  0
    4.1207   -2.0904   -2.3578 H   0  0  0  0  0  0  0  0  0  0  0  0
    4.5297   -3.1341   -0.9035 H   0  0  0  0  0  0  0  0  0  0  0  0
    1.9597   -1.0542   -2.4809 H   0  0  0  0  0  0  0  0  0  0  0  0
   -0.3738   -0.2634   -2.6134 H   0  0  0  0  0  0  0  0  0  0  0  0
   -2.4739   -2.8474    2.1817 H   0  0  0  0  0  0  0  0  0  0  0  0
   -2.9821   -3.3734    4.5038 H   0  0  0  0  0  0  0  0  0  0  0  0
   -4.0648   -1.6338    5.9680 H   0  0  0  0  0  0  0  0  0  0  0  0
   -4.6091    0.5890    5.0629 H   0  0  0  0  0  0  0  0  0  0  0  0
   -3.3469    2.1888    2.7345 H   0  0  0  0  0  0  0  0  0  0  0  0
   -4.3531    1.4007    1.5068 H   0  0  0  0  0  0  0  0  0  0  0  0
   -5.1233    1.8682    3.0441 H   0  0  0  0  0  0  0  0  0  0  0  0
    1.1862   -2.2512    2.2635 H   0  0  0  0  0  0  0  0  0  0  0  0
    3.8929   -2.1734    2.2081 H   0  0  0  0  0  0  0  0  0  0  0  0
   -6.7563    1.3151   -1.0637 H   0  0  0  0  0  0  0  0  0  0  0  0
   -7.8586    2.2658   -3.0193 H   0  0  0  0  0  0  0  0  0  0  0  0
   -6.5499    2.4904   -5.1380 H   0  0  0  0  0  0  0  0  0  0  0  0
   -4.2101    1.7665   -5.2285 H   0  0  0  0  0  0  0  0  0  0  0  0
   -2.1568    0.6175   -3.6251 H   0  0  0  0  0  0  0  0  0  0  0  0
  1  2  1  0
  2  3  1  0
  3  4  1  0
  4  5  1  0
  5  6  1  0
  6  7  1  0
  7  8  2  0
  8  9  1  0
  9 10  1  0
 10 11  2  0
 11 12  1  0
 12 13  2  3
 13 14  1  0
 14 15  2  0
 15 16  1  0
 16 17  2  0
 17 18  1  0
 18 19  2  0
 19 20  1  0
 12 21  1  0
 21 22  1  0
 22 23  1  0
 23 24  2  0
 24 25  1  0
 11 26  1  0
 26 27  2  0
 27 28  1  0
 28 29  2  0
 29 30  1  0
 30 31  2  0
 31 32  1  0
 32 33  2  0
 33 34  1  0
 24  7  1  0
 22  9  2  0
 19 14  1  0
 34 26  1  0
 33 28  1  0
  1 35  1  0
  1 36  1  0
  1 37  1  0
  2 38  1  0
  2 39  1  0
  3 40  1  0
  3 41  1  0
  4 42  1  0
  4 43  1  0
  5 44  1  0
  5 45  1  0
  6 46  1  0
  6 47  1  0
  8 48  1  0
 10 49  1  0
 15 50  1  0
 16 51  1  0
 17 52  1  0
 18 53  1  0
 20 54  1  0
 20 55  1  0
 20 56  1  0
 23 57  1  0
 25 58  1  0
 29 59  1  0
 30 60  1  0
 31 61  1  0
 32 62  1  0
 34 63  1  0
M  END
>  <Batch_No>  (314) 
2103-2628

>  <EC50_nM>  (314) 
551

>  <Set>  (314) 
Probe-like

>  <Molecular_Weight>  (314) 
451.55946

>  <ALogP>  (314) 
8.149

$$$$
MMV007224
     RDKit          3D

 40 43  0  0  0  0  0  0  0  0999 V2000
   -6.4402   -2.3165    2.2526 Br  0  0  0  0  0  0  0  0  0  0  0  0
   -4.7847   -1.8522    1.4254 C   0  0  0  0  0  0  0  0  0  0  0  0
   -4.3370   -0.5533    1.5214 C   0  0  0  0  0  0  0  0  0  0  0  0
   -3.1348   -0.1893    0.9280 C   0  0  0  0  0  0  0  0  0  0  0  0
   -2.3424   -1.0680    0.2322 C   0  0  0  0  0  0  0  0  0  0  0  0
   -1.1198   -0.7594   -0.3873 N   0  0  0  0  0  0  0  0  0  0  0  0
   -0.4630    0.4825   -0.4104 C   0  0  0  0  0  0  0  0  0  0  0  0
   -0.8921    1.6108    0.1651 N   0  0  0  0  0  0  0  0  0  0  0  0
   -0.2141    2.7635    0.1038 C   0  0  0  0  0  0  0  0  0  0  0  0
   -0.7464    3.8740    0.7341 C   0  0  0  0  0  0  0  0  0  0  0  0
   -0.1070    5.1016    0.7169 C   0  0  0  0  0  0  0  0  0  0  0  0
    1.0947    5.1531    0.0328 C   0  0  0  0  0  0  0  0  0  0  0  0
    1.6457    4.0601   -0.6034 C   0  0  0  0  0  0  0  0  0  0  0  0
    0.9837    2.8477   -0.5685 C   0  0  0  0  0  0  0  0  0  0  0  0
    1.4443    1.7361   -1.1575 N   0  0  0  0  0  0  0  0  0  0  0  0
    0.7586    0.5841   -1.0916 C   0  0  0  0  0  0  0  0  0  0  0  0
    1.3338   -0.5420   -1.7512 N   0  0  0  0  0  0  0  0  0  0  0  0
    2.2298   -1.4413   -1.1122 C   0  0  0  0  0  0  0  0  0  0  0  0
    2.7531   -2.5218   -1.8181 C   0  0  0  0  0  0  0  0  0  0  0  0
    3.6289   -3.4228   -1.2375 C   0  0  0  0  0  0  0  0  0  0  0  0
    3.9735   -3.2097    0.0936 C   0  0  0  0  0  0  0  0  0  0  0  0
    5.1803   -4.4099    0.9744 Br  0  0  0  0  0  0  0  0  0  0  0  0
    3.4558   -2.1315    0.8101 C   0  0  0  0  0  0  0  0  0  0  0  0
    2.5796   -1.2434    0.2033 C   0  0  0  0  0  0  0  0  0  0  0  0
   -2.8263   -2.3802    0.1534 C   0  0  0  0  0  0  0  0  0  0  0  0
   -4.0137   -2.7612    0.7336 C   0  0  0  0  0  0  0  0  0  0  0  0
   -4.9290    0.1981    2.0672 H   0  0  0  0  0  0  0  0  0  0  0  0
   -2.8488    0.8398    1.0430 H   0  0  0  0  0  0  0  0  0  0  0  0
   -0.6372   -1.5585   -0.8972 H   0  0  0  0  0  0  0  0  0  0  0  0
   -1.6909    3.7777    1.2557 H   0  0  0  0  0  0  0  0  0  0  0  0
   -0.5064    5.9841    1.2041 H   0  0  0  0  0  0  0  0  0  0  0  0
    1.6092    6.1057    0.0088 H   0  0  0  0  0  0  0  0  0  0  0  0
    2.5866    4.1229   -1.1324 H   0  0  0  0  0  0  0  0  0  0  0  0
    1.0686   -0.6913   -2.7501 H   0  0  0  0  0  0  0  0  0  0  0  0
    2.4430   -2.6339   -2.8615 H   0  0  0  0  0  0  0  0  0  0  0  0
    4.0328   -4.2553   -1.7796 H   0  0  0  0  0  0  0  0  0  0  0  0
    3.7130   -1.9515    1.8443 H   0  0  0  0  0  0  0  0  0  0  0  0
    2.1776   -0.4046    0.7628 H   0  0  0  0  0  0  0  0  0  0  0  0
   -2.2736   -3.1564   -0.3764 H   0  0  0  0  0  0  0  0  0  0  0  0
   -4.3855   -3.7879    0.6682 H   0  0  0  0  0  0  0  0  0  0  0  0
  1  2  1  0
  2  3  2  0
  3  4  1  0
  4  5  2  0
  5  6  1  0
  6  7  1  0
  7  8  2  0
  8  9  1  0
  9 10  2  0
 10 11  1  0
 11 12  2  0
 12 13  1  0
 13 14  2  0
 14 15  1  0
 15 16  2  0
 16 17  1  0
 17 18  1  0
 18 19  2  0
 19 20  1  0
 20 21  2  0
 21 22  1  0
 21 23  1  0
 23 24  2  0
  5 25  1  0
 25 26  2  0
 26  2  1  0
 16  7  1  0
 14  9  1  0
 24 18  1  0
  3 27  1  0
  4 28  1  0
  6 29  1  0
 10 30  1  0
 11 31  1  0
 12 32  1  0
 13 33  1  0
 17 34  1  0
 19 35  1  0
 20 36  1  0
 23 37  1  0
 24 38  1  0
 25 39  1  0
 26 40  1  0
M  END
>  <Batch_No>  (315) 
3174-0923

>  <EC50_nM>  (315) 
1061

>  <Set>  (315) 
Probe-like

>  <Molecular_Weight>  (315) 
470.15996

>  <ALogP>  (315) 
5.695

$$$$
MMV020912
     RDKit          3D

 56 60  0  0  0  0  0  0  0  0999 V2000
    1.0746   -3.8785    2.6331 C   0  0  0  0  0  0  0  0  0  0  0  0
    2.0520   -2.8510    2.1377 C   0  0  0  0  0  0  0  0  0  0  0  0
    3.3809   -2.8866    2.4970 C   0  0  0  0  0  0  0  0  0  0  0  0
    4.2173   -1.9104    2.0033 C   0  0  0  0  0  0  0  0  0  0  0  0
    3.7442   -0.9098    1.1634 C   0  0  0  0  0  0  0  0  0  0  0  0
    2.4042   -0.8943    0.8158 C   0  0  0  0  0  0  0  0  0  0  0  0
    1.5383   -1.8609    1.2951 C   0  0  0  0  0  0  0  0  0  0  0  0
    0.1715   -1.8430    0.9395 N   0  0  0  0  0  0  0  0  0  0  0  0
   -0.4265   -0.8461    0.0707 C   0  0  0  0  0  0  0  0  0  0  0  0
   -1.8762   -1.0892   -0.1140 C   0  0  0  0  0  0  0  0  0  0  0  0
   -2.8081   -0.2976    0.5576 C   0  0  0  0  0  0  0  0  0  0  0  0
   -4.1404   -0.5206    0.3886 C   0  0  0  0  0  0  0  0  0  0  0  0
   -5.2133    0.2659    1.0574 C   0  0  0  0  0  0  0  0  0  0  0  0
   -5.5450    1.3973    0.1588 C   0  0  0  0  0  0  0  0  0  0  0  0
   -4.9189    2.6232    0.2106 C   0  0  0  0  0  0  0  0  0  0  0  0
   -5.3323    3.5835   -0.6894 C   0  0  0  0  0  0  0  0  0  0  0  0
   -6.3333    3.3587   -1.6210 C   0  0  0  0  0  0  0  0  0  0  0  0
   -6.9632    2.1215   -1.6713 C   0  0  0  0  0  0  0  0  0  0  0  0
   -6.5516    1.1666   -0.7760 C   0  0  0  0  0  0  0  0  0  0  0  0
   -4.5642   -1.5402   -0.4557 C   0  0  0  0  0  0  0  0  0  0  0  0
   -3.6257   -2.3258   -1.1225 C   0  0  0  0  0  0  0  0  0  0  0  0
   -2.2814   -2.1131   -0.9623 C   0  0  0  0  0  0  0  0  0  0  0  0
   -1.3383   -2.8908   -1.6226 O   0  0  0  0  0  0  0  0  0  0  0  0
    4.6349    0.1241    0.6417 C   0  0  0  0  0  0  0  0  0  0  0  0
    4.3446    1.1337   -0.1584 O   0  0  0  0  0  0  0  0  0  0  0  0
    5.4159    1.8526   -0.4078 C   0  0  0  0  0  0  0  0  0  0  0  0
    5.6865    2.9802   -1.1522 C   0  0  0  0  0  0  0  0  0  0  0  0
    6.9460    3.5444   -1.2428 C   0  0  0  0  0  0  0  0  0  0  0  0
    8.0054    2.9536   -0.5517 C   0  0  0  0  0  0  0  0  0  0  0  0
    7.7475    1.8249    0.1967 C   0  0  0  0  0  0  0  0  0  0  0  0
    6.4812    1.2659    0.2819 C   0  0  0  0  0  0  0  0  0  0  0  0
    5.9554    0.1998    0.9181 N   0  0  0  0  0  0  0  0  0  0  0  0
    1.5716   -4.4592    3.4155 H   0  0  0  0  0  0  0  0  0  0  0  0
    0.7417   -4.5581    1.8393 H   0  0  0  0  0  0  0  0  0  0  0  0
    0.2092   -3.3579    3.1334 H   0  0  0  0  0  0  0  0  0  0  0  0
    3.7337   -3.6686    3.1491 H   0  0  0  0  0  0  0  0  0  0  0  0
    5.2724   -1.9136    2.2706 H   0  0  0  0  0  0  0  0  0  0  0  0
    2.0487   -0.0968    0.1518 H   0  0  0  0  0  0  0  0  0  0  0  0
   -0.4553   -2.5919    1.3224 H   0  0  0  0  0  0  0  0  0  0  0  0
    0.1225   -0.8049   -0.8843 H   0  0  0  0  0  0  0  0  0  0  0  0
   -0.2978    0.1358    0.5661 H   0  0  0  0  0  0  0  0  0  0  0  0
   -2.4998    0.5067    1.2243 H   0  0  0  0  0  0  0  0  0  0  0  0
   -4.7563    0.7202    1.9793 H   0  0  0  0  0  0  0  0  0  0  0  0
   -6.0840   -0.3322    1.3474 H   0  0  0  0  0  0  0  0  0  0  0  0
   -4.1356    2.7898    0.9443 H   0  0  0  0  0  0  0  0  0  0  0  0
   -4.8686    4.5444   -0.6769 H   0  0  0  0  0  0  0  0  0  0  0  0
   -6.6600    4.1120   -2.3293 H   0  0  0  0  0  0  0  0  0  0  0  0
   -7.7488    1.8894   -2.3754 H   0  0  0  0  0  0  0  0  0  0  0  0
   -7.0493    0.1992   -0.8210 H   0  0  0  0  0  0  0  0  0  0  0  0
   -5.6153   -1.7440   -0.6123 H   0  0  0  0  0  0  0  0  0  0  0  0
   -3.9685   -3.1129   -1.7744 H   0  0  0  0  0  0  0  0  0  0  0  0
   -0.9613   -2.5643   -2.5106 H   0  0  0  0  0  0  0  0  0  0  0  0
    4.8340    3.4212   -1.6835 H   0  0  0  0  0  0  0  0  0  0  0  0
    7.1169    4.4328   -1.8395 H   0  0  0  0  0  0  0  0  0  0  0  0
    9.0057    3.3701   -0.6007 H   0  0  0  0  0  0  0  0  0  0  0  0
    8.5623    1.3446    0.7468 H   0  0  0  0  0  0  0  0  0  0  0  0
  1  2  1  0
  2  3  2  0
  3  4  1  0
  4  5  2  0
  5  6  1  0
  6  7  2  0
  7  8  1  0
  8  9  1  0
  9 10  1  0
 10 11  2  0
 11 12  1  0
 12 13  1  0
 13 14  1  0
 14 15  2  0
 15 16  1  0
 16 17  2  0
 17 18  1  0
 18 19  2  0
 12 20  2  0
 20 21  1  0
 21 22  2  0
 22 23  1  0
  5 24  1  0
 24 25  1  0
 25 26  1  0
 26 27  2  0
 27 28  1  0
 28 29  2  0
 29 30  1  0
 30 31  2  0
 31 32  1  0
  7  2  1  0
 22 10  1  0
 19 14  1  0
 32 24  2  0
 31 26  1  0
  1 33  1  0
  1 34  1  0
  1 35  1  0
  3 36  1  0
  4 37  1  0
  6 38  1  0
  8 39  1  0
  9 40  1  0
  9 41  1  0
 11 42  1  0
 13 43  1  0
 13 44  1  0
 15 45  1  0
 16 46  1  0
 17 47  1  0
 18 48  1  0
 19 49  1  0
 20 50  1  0
 21 51  1  0
 23 52  1  0
 27 53  1  0
 28 54  1  0
 29 55  1  0
 30 56  1  0
M  END
>  <Batch_No>  (316) 
K630-0106

>  <EC50_nM>  (316) 
ND

>  <Set>  (316) 
Probe-like

>  <Molecular_Weight>  (316) 
420.50236

>  <ALogP>  (316) 
6.891

$$$$
MMV007181
     RDKit          3D

 47 50  0  0  0  0  0  0  0  0999 V2000
    6.3105    2.2139   -1.0926 C   0  0  0  0  0  0  0  0  0  0  0  0
    5.0971    1.4343   -0.7191 C   0  0  0  0  0  0  0  0  0  0  0  0
    3.8482    1.9980   -0.8765 C   0  0  0  0  0  0  0  0  0  0  0  0
    2.6905    1.2733   -0.5278 C   0  0  0  0  0  0  0  0  0  0  0  0
    1.4276    1.8726   -0.6985 N   0  0  0  0  0  0  0  0  0  0  0  0
    0.1705    1.3080   -0.4077 C   0  0  0  0  0  0  0  0  0  0  0  0
   -0.9756    2.0785   -0.6525 C   0  0  0  0  0  0  0  0  0  0  0  0
   -2.2419    1.6098   -0.3992 C   0  0  0  0  0  0  0  0  0  0  0  0
   -2.4272    0.3538    0.1090 C   0  0  0  0  0  0  0  0  0  0  0  0
   -3.6753   -0.1880    0.3904 O   0  0  0  0  0  0  0  0  0  0  0  0
   -4.8373    0.5794    0.1477 C   0  0  0  0  0  0  0  0  0  0  0  0
   -5.9836   -0.2988    0.5571 C   0  0  0  0  0  0  0  0  0  0  0  0
   -6.5063   -1.1087   -0.4281 C   0  0  0  0  0  0  0  0  0  0  0  0
   -7.5633   -1.9550   -0.1551 C   0  0  0  0  0  0  0  0  0  0  0  0
   -8.0806   -1.9624    1.1426 C   0  0  0  0  0  0  0  0  0  0  0  0
   -7.5455   -1.1445    2.1189 C   0  0  0  0  0  0  0  0  0  0  0  0
   -6.4846   -0.2951    1.8449 C   0  0  0  0  0  0  0  0  0  0  0  0
   -1.3300   -0.4377    0.3648 C   0  0  0  0  0  0  0  0  0  0  0  0
   -0.0512    0.0613    0.0988 C   0  0  0  0  0  0  0  0  0  0  0  0
    2.9209    0.0486   -0.0543 N   0  0  0  0  0  0  0  0  0  0  0  0
    4.1118   -0.5292    0.1117 C   0  0  0  0  0  0  0  0  0  0  0  0
    4.1287   -1.8149    0.6207 C   0  0  0  0  0  0  0  0  0  0  0  0
    5.3774   -2.4083    0.7899 C   0  0  0  0  0  0  0  0  0  0  0  0
    5.3979   -3.6973    1.3000 O   0  0  0  0  0  0  0  0  0  0  0  0
    6.5426   -1.7201    0.4552 C   0  0  0  0  0  0  0  0  0  0  0  0
    6.4929   -0.4371   -0.0510 C   0  0  0  0  0  0  0  0  0  0  0  0
    5.2610    0.1593   -0.2222 C   0  0  0  0  0  0  0  0  0  0  0  0
    7.0334    1.5916   -1.6802 H   0  0  0  0  0  0  0  0  0  0  0  0
    6.8487    2.5839   -0.1886 H   0  0  0  0  0  0  0  0  0  0  0  0
    6.0260    3.0586   -1.7594 H   0  0  0  0  0  0  0  0  0  0  0  0
    3.7774    3.0051   -1.2722 H   0  0  0  0  0  0  0  0  0  0  0  0
    1.4311    2.8612   -1.0909 H   0  0  0  0  0  0  0  0  0  0  0  0
   -0.9049    3.0853   -1.0558 H   0  0  0  0  0  0  0  0  0  0  0  0
   -3.1242    2.2300   -0.5985 H   0  0  0  0  0  0  0  0  0  0  0  0
   -4.7803    1.4589    0.8460 H   0  0  0  0  0  0  0  0  0  0  0  0
   -4.9688    0.8822   -0.8996 H   0  0  0  0  0  0  0  0  0  0  0  0
   -6.0993   -1.0998   -1.4403 H   0  0  0  0  0  0  0  0  0  0  0  0
   -7.9631   -2.5849   -0.9383 H   0  0  0  0  0  0  0  0  0  0  0  0
   -8.9058   -2.6100    1.3933 H   0  0  0  0  0  0  0  0  0  0  0  0
   -7.9827   -1.1838    3.1212 H   0  0  0  0  0  0  0  0  0  0  0  0
   -6.0542    0.3511    2.5968 H   0  0  0  0  0  0  0  0  0  0  0  0
   -1.4457   -1.4341    0.7664 H   0  0  0  0  0  0  0  0  0  0  0  0
    0.7560   -0.5890    0.3140 H   0  0  0  0  0  0  0  0  0  0  0  0
    3.2212   -2.3443    0.8788 H   0  0  0  0  0  0  0  0  0  0  0  0
    6.2021   -4.1190    1.7635 H   0  0  0  0  0  0  0  0  0  0  0  0
    7.4683   -2.2396    0.6122 H   0  0  0  0  0  0  0  0  0  0  0  0
    7.3897    0.1030   -0.3127 H   0  0  0  0  0  0  0  0  0  0  0  0
  1  2  1  0
  2  3  2  0
  3  4  1  0
  4  5  1  0
  5  6  1  0
  6  7  2  0
  7  8  1  0
  8  9  2  0
  9 10  1  0
 10 11  1  0
 11 12  1  0
 12 13  2  0
 13 14  1  0
 14 15  2  0
 15 16  1  0
 16 17  2  0
  9 18  1  0
 18 19  2  0
  4 20  2  0
 20 21  1  0
 21 22  2  0
 22 23  1  0
 23 24  1  0
 23 25  2  0
 25 26  1  0
 26 27  2  0
 27  2  1  0
 19  6  1  0
 17 12  1  0
 27 21  1  0
  1 28  1  0
  1 29  1  0
  1 30  1  0
  3 31  1  0
  5 32  1  0
  7 33  1  0
  8 34  1  0
 11 35  1  0
 11 36  1  0
 13 37  1  0
 14 38  1  0
 15 39  1  0
 16 40  1  0
 17 41  1  0
 18 42  1  0
 19 43  1  0
 22 44  1  0
 24 45  1  0
 25 46  1  0
 26 47  1  0
M  END
>  <Batch_No>  (317) 
C614-0124

>  <EC50_nM>  (317) 
684

>  <Set>  (317) 
Probe-like

>  <Molecular_Weight>  (317) 
356.4171

>  <ALogP>  (317) 
5.279

$$$$
MMV007113
     RDKit          3D

 46 50  0  0  0  0  0  0  0  0999 V2000
    5.9852    0.3625    0.2391 C   0  0  0  0  0  0  0  0  0  0  0  0
    5.1868    1.4461    0.5209 C   0  0  0  0  0  0  0  0  0  0  0  0
    3.8179    1.3039    0.5478 C   0  0  0  0  0  0  0  0  0  0  0  0
    3.1311    0.1514    0.3105 C   0  0  0  0  0  0  0  0  0  0  0  0
    3.9896   -0.9539    0.0237 C   0  0  0  0  0  0  0  0  0  0  0  0
    5.3498   -0.8310   -0.0054 C   0  0  0  0  0  0  0  0  0  0  0  0
    1.7338   -0.1214    0.1660 C   0  0  0  0  0  0  0  0  0  0  0  0
    1.5243   -1.3898    0.4174 N   0  0  0  0  0  0  0  0  0  0  0  0
    0.4638   -2.3033    0.4810 C   0  0  0  0  0  0  0  0  0  0  0  0
    1.0329   -3.5702    0.6436 C   0  0  0  0  0  0  0  0  0  0  0  0
    0.2672   -4.6925    0.8263 C   0  0  0  0  0  0  0  0  0  0  0  0
   -1.1074   -4.5399    0.8465 C   0  0  0  0  0  0  0  0  0  0  0  0
   -1.6710   -3.2924    0.6849 C   0  0  0  0  0  0  0  0  0  0  0  0
   -0.8991   -2.1473    0.4972 C   0  0  0  0  0  0  0  0  0  0  0  0
   -1.7794   -1.0888    0.2779 N   0  0  0  0  0  0  0  0  0  0  0  0
   -1.7503    0.2092    0.0248 C   0  0  0  0  0  0  0  0  0  0  0  0
   -3.0844    0.6729   -0.1092 C   0  0  0  0  0  0  0  0  0  0  0  0
   -3.6536    1.7260   -0.7550 C   0  0  0  0  0  0  0  0  0  0  0  0
   -4.9567    2.1461   -0.6550 C   0  0  0  0  0  0  0  0  0  0  0  0
   -5.8273    1.4678    0.1653 C   0  0  0  0  0  0  0  0  0  0  0  0
   -5.3233    0.3893    0.8462 C   0  0  0  0  0  0  0  0  0  0  0  0
   -4.0292   -0.0084    0.7343 C   0  0  0  0  0  0  0  0  0  0  0  0
   -0.5936    1.0698   -0.0539 C   0  0  0  0  0  0  0  0  0  0  0  0
   -1.0829    2.3210   -0.2385 C   0  0  0  0  0  0  0  0  0  0  0  0
   -0.3338    3.4097   -0.6169 C   0  0  0  0  0  0  0  0  0  0  0  0
    1.0343    3.1895   -0.8173 C   0  0  0  0  0  0  0  0  0  0  0  0
    1.5460    1.9481   -0.6249 C   0  0  0  0  0  0  0  0  0  0  0  0
    0.7842    0.8936   -0.2391 C   0  0  0  0  0  0  0  0  0  0  0  0
    7.0503    0.5073    0.2259 H   0  0  0  0  0  0  0  0  0  0  0  0
    5.6572    2.3987    0.7176 H   0  0  0  0  0  0  0  0  0  0  0  0
    3.2840    2.2159    0.8850 H   0  0  0  0  0  0  0  0  0  0  0  0
    3.5729   -1.9257   -0.1801 H   0  0  0  0  0  0  0  0  0  0  0  0
    5.9772   -1.6846   -0.2255 H   0  0  0  0  0  0  0  0  0  0  0  0
    2.1094   -3.6945    0.6285 H   0  0  0  0  0  0  0  0  0  0  0  0
    0.6901   -5.6808    0.9538 H   0  0  0  0  0  0  0  0  0  0  0  0
   -1.7145   -5.4168    0.9908 H   0  0  0  0  0  0  0  0  0  0  0  0
   -2.7544   -3.1996    0.7048 H   0  0  0  0  0  0  0  0  0  0  0  0
   -3.0707    2.2709   -1.5305 H   0  0  0  0  0  0  0  0  0  0  0  0
   -5.3198    3.0008   -1.2065 H   0  0  0  0  0  0  0  0  0  0  0  0
   -6.8447    1.8172    0.2268 H   0  0  0  0  0  0  0  0  0  0  0  0
   -5.9987   -0.1596    1.4979 H   0  0  0  0  0  0  0  0  0  0  0  0
   -3.7127   -0.8657    1.3034 H   0  0  0  0  0  0  0  0  0  0  0  0
   -2.0864    2.5139    0.0728 H   0  0  0  0  0  0  0  0  0  0  0  0
   -0.7977    4.3660   -0.7451 H   0  0  0  0  0  0  0  0  0  0  0  0
    1.6437    4.0166   -1.1201 H   0  0  0  0  0  0  0  0  0  0  0  0
    2.5602    1.7520   -0.9148 H   0  0  0  0  0  0  0  0  0  0  0  0
  1  2  2  0
  2  3  1  0
  3  4  2  0
  4  5  1  0
  5  6  2  0
  4  7  1  0
  7  8  2  3
  8  9  1  0
  9 10  2  0
 10 11  1  0
 11 12  2  0
 12 13  1  0
 13 14  2  0
 14 15  1  0
 15 16  2  3
 16 17  1  0
 17 18  2  0
 18 19  1  0
 19 20  2  0
 20 21  1  0
 21 22  2  0
 16 23  1  0
 23 24  2  0
 24 25  1  0
 25 26  2  0
 26 27  1  0
 27 28  2  0
  6  1  1  0
 28  7  1  0
 14  9  1  0
 22 17  1  0
 28 23  1  0
  1 29  1  0
  2 30  1  0
  3 31  1  0
  5 32  1  0
  6 33  1  0
 10 34  1  0
 11 35  1  0
 12 36  1  0
 13 37  1  0
 18 38  1  0
 19 39  1  0
 20 40  1  0
 21 41  1  0
 22 42  1  0
 24 43  1  0
 25 44  1  0
 26 45  1  0
 27 46  1  0
M  END
>  <Batch_No>  (318) 
3355-0142

>  <EC50_nM>  (318) 
661.5

>  <Set>  (318) 
Probe-like

>  <Molecular_Weight>  (318) 
358.43452

>  <ALogP>  (318) 
6.482

$$$$
MMV007228
     RDKit          3D

 79 88  0  0  0  0  0  0  0  0999 V2000
    7.7750   -0.0321    2.0365 C   0  0  0  0  0  0  0  0  0  0  0  0
    6.8020   -0.3817    0.9621 C   0  0  0  0  0  0  0  0  0  0  0  0
    7.1792   -1.0258   -0.1992 C   0  0  0  0  0  0  0  0  0  0  0  0
    6.1957   -1.3090   -1.1396 C   0  0  0  0  0  0  0  0  0  0  0  0
    4.8673   -0.9678   -0.9459 C   0  0  0  0  0  0  0  0  0  0  0  0
    4.4972   -0.3323    0.2003 C   0  0  0  0  0  0  0  0  0  0  0  0
    5.4800   -0.0548    1.1285 C   0  0  0  0  0  0  0  0  0  0  0  0
    3.1721    0.0668    0.5222 N   0  0  0  0  0  0  0  0  0  0  0  0
    2.5178    1.3151    0.2148 C   0  0  0  0  0  0  0  0  0  0  0  0
    3.1754    2.2986   -0.2107 O   0  0  0  0  0  0  0  0  0  0  0  0
    1.0986    1.1810    0.4824 C   0  0  0  0  0  0  0  0  0  0  0  0
    0.8784   -0.1954    1.1039 C   0  0  0  0  0  0  0  0  0  0  0  0
    2.2630   -0.7605    1.2496 C   0  0  0  0  0  0  0  0  0  0  0  0
    2.5240   -1.7933    1.9124 O   0  0  0  0  0  0  0  0  0  0  0  0
    0.0689   -0.9557    0.1272 C   0  0  0  0  0  0  0  0  0  0  0  0
    0.4073   -0.2215   -1.1597 C   0  0  0  0  0  0  0  0  0  0  0  0
    0.7603   -0.6063   -2.2239 O   0  0  0  0  0  0  0  0  0  0  0  0
    0.1486    1.2191   -0.6673 C   0  0  0  0  0  0  0  0  0  0  0  0
   -1.1845    0.9721   -0.0658 C   0  0  0  0  0  0  0  0  0  0  0  0
   -1.3452   -0.3667    0.1583 C   0  0  0  0  0  0  0  0  0  0  0  0
   -2.5951   -1.0634    0.3913 C   0  0  0  0  0  0  0  0  0  0  0  0
   -3.4754   -0.7284    1.4201 C   0  0  0  0  0  0  0  0  0  0  0  0
   -4.6930   -1.3969    1.5687 C   0  0  0  0  0  0  0  0  0  0  0  0
   -5.0744   -2.4085    0.7124 C   0  0  0  0  0  0  0  0  0  0  0  0
   -6.1806   -3.2375    0.5975 O   0  0  0  0  0  0  0  0  0  0  0  0
   -5.8616   -4.3325   -0.2427 C   0  0  0  0  0  0  0  0  0  0  0  0
   -4.8059   -3.7717   -1.0217 O   0  0  0  0  0  0  0  0  0  0  0  0
   -4.2057   -2.7408   -0.3048 C   0  0  0  0  0  0  0  0  0  0  0  0
   -3.0008   -2.0965   -0.4713 C   0  0  0  0  0  0  0  0  0  0  0  0
   -2.2652    1.8866    0.2682 C   0  0  0  0  0  0  0  0  0  0  0  0
   -3.5564    1.6778   -0.2312 C   0  0  0  0  0  0  0  0  0  0  0  0
   -4.6080    2.5057    0.1088 C   0  0  0  0  0  0  0  0  0  0  0  0
   -4.4267    3.5772    0.9580 C   0  0  0  0  0  0  0  0  0  0  0  0
   -5.2656    4.5691    1.4772 O   0  0  0  0  0  0  0  0  0  0  0  0
   -4.5540    5.2918    2.4573 C   0  0  0  0  0  0  0  0  0  0  0  0
   -3.2070    4.9295    2.2921 O   0  0  0  0  0  0  0  0  0  0  0  0
   -3.1823    3.8000    1.4546 C   0  0  0  0  0  0  0  0  0  0  0  0
   -2.1284    2.9688    1.1134 C   0  0  0  0  0  0  0  0  0  0  0  0
    0.3246    2.1103   -1.7468 C   0  0  0  0  0  0  0  0  0  0  0  0
    1.4494    1.9532   -2.5821 C   0  0  0  0  0  0  0  0  0  0  0  0
    1.6791    2.7811   -3.6550 C   0  0  0  0  0  0  0  0  0  0  0  0
    0.8298    3.8130   -3.9829 C   0  0  0  0  0  0  0  0  0  0  0  0
   -0.2758    3.9864   -3.1823 C   0  0  0  0  0  0  0  0  0  0  0  0
   -0.5061    3.1600   -2.1106 C   0  0  0  0  0  0  0  0  0  0  0  0
    0.1612   -2.3636    0.1135 C   0  0  0  0  0  0  0  0  0  0  0  0
   -0.6383   -3.1814    0.8797 C   0  0  0  0  0  0  0  0  0  0  0  0
   -0.5633   -4.5716    0.8313 C   0  0  0  0  0  0  0  0  0  0  0  0
    0.3313   -5.2009    0.0002 C   0  0  0  0  0  0  0  0  0  0  0  0
    1.1424   -4.4049   -0.7740 C   0  0  0  0  0  0  0  0  0  0  0  0
    1.0670   -3.0258   -0.7255 C   0  0  0  0  0  0  0  0  0  0  0  0
    7.2232   -0.0649    3.0042 H   0  0  0  0  0  0  0  0  0  0  0  0
    8.0775    1.0191    1.8748 H   0  0  0  0  0  0  0  0  0  0  0  0
    8.6069   -0.7581    1.9816 H   0  0  0  0  0  0  0  0  0  0  0  0
    8.2278   -1.2987   -0.3596 H   0  0  0  0  0  0  0  0  0  0  0  0
    6.5182   -1.8164   -2.0467 H   0  0  0  0  0  0  0  0  0  0  0  0
    4.1049   -1.1914   -1.6797 H   0  0  0  0  0  0  0  0  0  0  0  0
    5.2029    0.4592    2.0634 H   0  0  0  0  0  0  0  0  0  0  0  0
    0.8154    1.9262    1.2810 H   0  0  0  0  0  0  0  0  0  0  0  0
    0.4747   -0.1325    2.1332 H   0  0  0  0  0  0  0  0  0  0  0  0
   -3.2075    0.0612    2.1204 H   0  0  0  0  0  0  0  0  0  0  0  0
   -5.3590   -1.1191    2.3744 H   0  0  0  0  0  0  0  0  0  0  0  0
   -5.3946   -5.1045    0.3982 H   0  0  0  0  0  0  0  0  0  0  0  0
   -6.6764   -4.6892   -0.8645 H   0  0  0  0  0  0  0  0  0  0  0  0
   -2.3807   -2.4171   -1.2972 H   0  0  0  0  0  0  0  0  0  0  0  0
   -3.7876    0.8693   -0.9106 H   0  0  0  0  0  0  0  0  0  0  0  0
   -5.6083    2.3482   -0.2735 H   0  0  0  0  0  0  0  0  0  0  0  0
   -4.6145    6.3889    2.3210 H   0  0  0  0  0  0  0  0  0  0  0  0
   -4.9472    4.9948    3.4564 H   0  0  0  0  0  0  0  0  0  0  0  0
   -1.1704    3.1948    1.5365 H   0  0  0  0  0  0  0  0  0  0  0  0
    2.1765    1.1710   -2.4170 H   0  0  0  0  0  0  0  0  0  0  0  0
    2.5505    2.6397   -4.2793 H   0  0  0  0  0  0  0  0  0  0  0  0
    0.9807    4.4813   -4.8171 H   0  0  0  0  0  0  0  0  0  0  0  0
   -0.9717    4.8062   -3.4231 H   0  0  0  0  0  0  0  0  0  0  0  0
   -1.3996    3.3566   -1.5395 H   0  0  0  0  0  0  0  0  0  0  0  0
   -1.3656   -2.8005    1.6066 H   0  0  0  0  0  0  0  0  0  0  0  0
   -1.2242   -5.1870    1.4608 H   0  0  0  0  0  0  0  0  0  0  0  0
    0.3529   -6.2751   -0.0032 H   0  0  0  0  0  0  0  0  0  0  0  0
    1.8474   -4.9040   -1.4300 H   0  0  0  0  0  0  0  0  0  0  0  0
    1.7517   -2.4938   -1.3706 H   0  0  0  0  0  0  0  0  0  0  0  0
  1  2  1  0
  2  3  2  0
  3  4  1  0
  4  5  2  0
  5  6  1  0
  6  7  2  0
  6  8  1  0
  8  9  1  0
  9 10  2  0
  9 11  1  0
 11 12  1  0
 12 13  1  0
 13 14  2  0
 12 15  1  0
 15 16  1  0
 16 17  2  0
 16 18  1  0
 18 19  1  0
 19 20  2  0
 20 21  1  0
 21 22  2  0
 22 23  1  0
 23 24  2  0
 24 25  1  0
 25 26  1  0
 26 27  1  0
 27 28  1  0
 28 29  2  0
 19 30  1  0
 30 31  2  0
 31 32  1  0
 32 33  2  0
 33 34  1  0
 34 35  1  0
 35 36  1  0
 36 37  1  0
 37 38  2  0
 18 39  1  0
 39 40  2  0
 40 41  1  0
 41 42  2  0
 42 43  1  0
 43 44  2  0
 15 45  1  0
 45 46  2  0
 46 47  1  0
 47 48  2  0
 48 49  1  0
 49 50  2  0
  7  2  1  0
 13  8  1  0
 18 11  1  0
 20 15  1  0
 29 21  1  0
 28 24  1  0
 38 30  1  0
 37 33  1  0
 44 39  1  0
 50 45  1  0
  1 51  1  0
  1 52  1  0
  1 53  1  0
  3 54  1  0
  4 55  1  0
  5 56  1  0
  7 57  1  0
 11 58  1  0
 12 59  1  0
 22 60  1  0
 23 61  1  0
 26 62  1  0
 26 63  1  0
 29 64  1  0
 31 65  1  0
 32 66  1  0
 35 67  1  0
 35 68  1  0
 38 69  1  0
 40 70  1  0
 41 71  1  0
 42 72  1  0
 43 73  1  0
 44 74  1  0
 46 75  1  0
 47 76  1  0
 48 77  1  0
 49 78  1  0
 50 79  1  0
M  END
>  <Batch_No>  (319) 
STK264394

>  <EC50_nM>  (319) 
304.5

>  <Set>  (319) 
Probe-like

>  <Molecular_Weight>  (319) 
659.68215

>  <ALogP>  (319) 
6.563

$$$$
MMV665972
     RDKit          3D

 49 52  0  0  0  0  0  0  0  0999 V2000
   -1.6814    0.1020    2.7381 O   0  0  0  0  0  0  0  0  0  0  0  0
   -2.1676   -0.6920    1.7082 C   0  0  0  0  0  0  0  0  0  0  0  0
   -3.1203   -1.6460    2.0949 C   0  0  0  0  0  0  0  0  0  0  0  0
   -3.6971   -2.5056    1.1933 C   0  0  0  0  0  0  0  0  0  0  0  0
   -3.3003   -2.3950   -0.1226 C   0  0  0  0  0  0  0  0  0  0  0  0
   -3.8953   -3.2721   -1.0176 C   0  0  0  0  0  0  0  0  0  0  0  0
   -3.5491   -3.2209   -2.3520 C   0  0  0  0  0  0  0  0  0  0  0  0
   -2.6122   -2.2784   -2.7149 C   0  0  0  0  0  0  0  0  0  0  0  0
   -2.0228   -1.4100   -1.8293 C   0  0  0  0  0  0  0  0  0  0  0  0
   -2.3645   -1.4578   -0.5012 C   0  0  0  0  0  0  0  0  0  0  0  0
   -1.7693   -0.5792    0.3960 C   0  0  0  0  0  0  0  0  0  0  0  0
   -0.7706    0.4205    0.0402 C   0  0  0  0  0  0  0  0  0  0  0  0
    0.4224    0.1712    0.8350 N   0  0  0  0  0  0  0  0  0  0  0  0
    1.6728    0.0732    0.1627 C   0  0  0  0  0  0  0  0  0  0  0  0
    1.7873    0.1918   -1.0749 O   0  0  0  0  0  0  0  0  0  0  0  0
    2.9105   -0.1812    0.9495 C   0  0  0  0  0  0  0  0  0  0  0  0
    4.1067   -0.2510    0.1060 C   0  0  0  0  0  0  0  0  0  0  0  0
    4.5741   -1.4365   -0.4586 C   0  0  0  0  0  0  0  0  0  0  0  0
    5.7170   -1.3404   -1.2319 C   0  0  0  0  0  0  0  0  0  0  0  0
    6.3854   -0.1637   -1.4571 C   0  0  0  0  0  0  0  0  0  0  0  0
    5.9233    1.0105   -0.8984 C   0  0  0  0  0  0  0  0  0  0  0  0
    4.7907    0.9471   -0.1256 C   0  0  0  0  0  0  0  0  0  0  0  0
   -1.3026    1.8244    0.2735 C   0  0  0  0  0  0  0  0  0  0  0  0
   -2.6537    2.0398    0.4684 C   0  0  0  0  0  0  0  0  0  0  0  0
   -3.0811    3.3426    0.6763 C   0  0  0  0  0  0  0  0  0  0  0  0
   -2.1515    4.3862    0.6833 C   0  0  0  0  0  0  0  0  0  0  0  0
   -2.6370    6.0449    0.9404 Cl  0  0  0  0  0  0  0  0  0  0  0  0
   -0.8072    4.1351    0.4850 C   0  0  0  0  0  0  0  0  0  0  0  0
   -0.3708    2.8464    0.2777 C   0  0  0  0  0  0  0  0  0  0  0  0
   -1.5349   -0.2909    3.6596 H   0  0  0  0  0  0  0  0  0  0  0  0
   -3.4364   -1.7378    3.1288 H   0  0  0  0  0  0  0  0  0  0  0  0
   -4.4249   -3.2297    1.5080 H   0  0  0  0  0  0  0  0  0  0  0  0
   -4.6280   -3.9943   -0.6741 H   0  0  0  0  0  0  0  0  0  0  0  0
   -4.0124   -3.9062   -3.0581 H   0  0  0  0  0  0  0  0  0  0  0  0
   -2.3483   -2.2493   -3.7731 H   0  0  0  0  0  0  0  0  0  0  0  0
   -1.3028   -0.7159   -2.2321 H   0  0  0  0  0  0  0  0  0  0  0  0
   -0.4408    0.4834   -0.9928 H   0  0  0  0  0  0  0  0  0  0  0  0
    0.4351    0.0585    1.8616 H   0  0  0  0  0  0  0  0  0  0  0  0
    2.8574   -1.1394    1.5221 H   0  0  0  0  0  0  0  0  0  0  0  0
    3.0510    0.6142    1.7084 H   0  0  0  0  0  0  0  0  0  0  0  0
    4.0459   -2.3579   -0.2790 H   0  0  0  0  0  0  0  0  0  0  0  0
    6.0926   -2.2707   -1.6811 H   0  0  0  0  0  0  0  0  0  0  0  0
    7.2816   -0.1077   -2.0675 H   0  0  0  0  0  0  0  0  0  0  0  0
    6.4503    1.9336   -1.0769 H   0  0  0  0  0  0  0  0  0  0  0  0
    4.4439    1.8893    0.3062 H   0  0  0  0  0  0  0  0  0  0  0  0
   -3.3587    1.2169    0.4592 H   0  0  0  0  0  0  0  0  0  0  0  0
   -4.1401    3.5764    0.8369 H   0  0  0  0  0  0  0  0  0  0  0  0
   -0.0552    4.9184    0.4835 H   0  0  0  0  0  0  0  0  0  0  0  0
    0.6892    2.6033    0.1160 H   0  0  0  0  0  0  0  0  0  0  0  0
  1  2  1  0
  2  3  2  0
  3  4  1  0
  4  5  2  0
  5  6  1  0
  6  7  2  0
  7  8  1  0
  8  9  2  0
  9 10  1  0
 10 11  2  0
 11 12  1  0
 12 13  1  0
 13 14  1  0
 14 15  2  0
 14 16  1  0
 16 17  1  0
 17 18  2  0
 18 19  1  0
 19 20  2  0
 20 21  1  0
 21 22  2  0
 12 23  1  0
 23 24  2  0
 24 25  1  0
 25 26  2  0
 26 27  1  0
 26 28  1  0
 28 29  2  0
 11  2  1  0
 10  5  1  0
 22 17  1  0
 29 23  1  0
  1 30  1  0
  3 31  1  0
  4 32  1  0
  6 33  1  0
  7 34  1  0
  8 35  1  0
  9 36  1  0
 12 37  1  0
 13 38  1  0
 16 39  1  0
 16 40  1  0
 18 41  1  0
 19 42  1  0
 20 43  1  0
 21 44  1  0
 22 45  1  0
 24 46  1  0
 25 47  1  0
 28 48  1  0
 29 49  1  0
M  END
>  <Batch_No>  (320) 
5930078

>  <EC50_nM>  (320) 
1140

>  <Set>  (320) 
Probe-like

>  <Molecular_Weight>  (320) 
401.8848

>  <ALogP>  (320) 
5.599

$$$$
MMV073843
     RDKit          3D

 46 48  0  0  0  0  0  0  0  0999 V2000
    7.4323   -1.9874    0.5688 C   0  0  0  0  0  0  0  0  0  0  0  0
    6.8417   -0.8108   -0.0462 N   0  0  0  0  0  0  0  0  0  0  0  0
    7.6752    0.1021   -0.8007 C   0  0  0  0  0  0  0  0  0  0  0  0
    5.4481   -0.5418    0.0836 C   0  0  0  0  0  0  0  0  0  0  0  0
    4.8589    0.5612   -0.4854 C   0  0  0  0  0  0  0  0  0  0  0  0
    3.5286    0.8021   -0.3517 C   0  0  0  0  0  0  0  0  0  0  0  0
    2.7248   -0.0605    0.3648 C   0  0  0  0  0  0  0  0  0  0  0  0
    3.2794   -1.1946    0.9608 C   0  0  0  0  0  0  0  0  0  0  0  0
    4.6495   -1.4092    0.8019 C   0  0  0  0  0  0  0  0  0  0  0  0
    1.3325    0.1760    0.5151 N   0  0  0  0  0  0  0  0  0  0  0  0
    0.5809   -0.1024   -0.4970 C   0  0  0  0  0  0  0  0  0  0  0  0
   -0.8509    0.1455   -0.3297 C   0  0  0  0  0  0  0  0  0  0  0  0
   -1.3651    0.6549    0.8489 C   0  0  0  0  0  0  0  0  0  0  0  0
   -2.7350    0.8784    0.9753 C   0  0  0  0  0  0  0  0  0  0  0  0
   -3.6224    0.6080   -0.0465 C   0  0  0  0  0  0  0  0  0  0  0  0
   -3.1065    0.1002   -1.2202 C   0  0  0  0  0  0  0  0  0  0  0  0
   -1.7364   -0.1313   -1.3680 C   0  0  0  0  0  0  0  0  0  0  0  0
   -5.0214    0.8300    0.0574 N   0  0  0  0  0  0  0  0  0  0  0  0
   -5.9501    0.4795   -1.0208 C   0  0  0  0  0  0  0  0  0  0  0  0
   -7.2706    0.1570   -0.3099 C   0  0  0  0  0  0  0  0  0  0  0  0
   -7.8048    1.2816    0.2976 O   0  0  0  0  0  0  0  0  0  0  0  0
   -6.8449    2.1811    0.7138 C   0  0  0  0  0  0  0  0  0  0  0  0
   -5.6188    1.4217    1.2398 C   0  0  0  0  0  0  0  0  0  0  0  0
    8.4291   -2.1884    0.1457 H   0  0  0  0  0  0  0  0  0  0  0  0
    7.5370   -1.8605    1.6548 H   0  0  0  0  0  0  0  0  0  0  0  0
    6.7462   -2.8307    0.3128 H   0  0  0  0  0  0  0  0  0  0  0  0
    7.1703    0.3763   -1.7424 H   0  0  0  0  0  0  0  0  0  0  0  0
    8.6596   -0.3425   -1.0250 H   0  0  0  0  0  0  0  0  0  0  0  0
    7.7682    1.0248   -0.1789 H   0  0  0  0  0  0  0  0  0  0  0  0
    5.4659    1.2713   -1.0635 H   0  0  0  0  0  0  0  0  0  0  0  0
    3.0918    1.6748   -0.8080 H   0  0  0  0  0  0  0  0  0  0  0  0
    2.6528   -1.8791    1.5268 H   0  0  0  0  0  0  0  0  0  0  0  0
    5.0299   -2.3041    1.2848 H   0  0  0  0  0  0  0  0  0  0  0  0
    0.9390   -0.4927   -1.4225 H   0  0  0  0  0  0  0  0  0  0  0  0
   -0.7062    0.8842    1.6846 H   0  0  0  0  0  0  0  0  0  0  0  0
   -3.0909    1.2746    1.9073 H   0  0  0  0  0  0  0  0  0  0  0  0
   -3.7059   -0.1481   -2.0854 H   0  0  0  0  0  0  0  0  0  0  0  0
   -1.3181   -0.5302   -2.2864 H   0  0  0  0  0  0  0  0  0  0  0  0
   -5.6137   -0.4847   -1.4555 H   0  0  0  0  0  0  0  0  0  0  0  0
   -6.0311    1.3024   -1.7293 H   0  0  0  0  0  0  0  0  0  0  0  0
   -7.9840   -0.2412   -1.0344 H   0  0  0  0  0  0  0  0  0  0  0  0
   -7.0138   -0.6478    0.4026 H   0  0  0  0  0  0  0  0  0  0  0  0
   -6.4838    2.6971   -0.2232 H   0  0  0  0  0  0  0  0  0  0  0  0
   -7.1963    2.8614    1.4886 H   0  0  0  0  0  0  0  0  0  0  0  0
   -5.8619    0.7035    2.0214 H   0  0  0  0  0  0  0  0  0  0  0  0
   -4.9089    2.1612    1.6732 H   0  0  0  0  0  0  0  0  0  0  0  0
  1  2  1  0
  2  3  1  0
  2  4  1  0
  4  5  2  0
  5  6  1  0
  6  7  2  0
  7  8  1  0
  8  9  2  0
  7 10  1  0
 10 11  2  3
 11 12  1  0
 12 13  2  0
 13 14  1  0
 14 15  2  0
 15 16  1  0
 16 17  2  0
 15 18  1  0
 18 19  1  0
 19 20  1  0
 20 21  1  0
 21 22  1  0
 22 23  1  0
  9  4  1  0
 17 12  1  0
 23 18  1  0
  1 24  1  0
  1 25  1  0
  1 26  1  0
  3 27  1  0
  3 28  1  0
  3 29  1  0
  5 30  1  0
  6 31  1  0
  8 32  1  0
  9 33  1  0
 11 34  1  0
 13 35  1  0
 14 36  1  0
 16 37  1  0
 17 38  1  0
 19 39  1  0
 19 40  1  0
 20 41  1  0
 20 42  1  0
 22 43  1  0
 22 44  1  0
 23 45  1  0
 23 46  1  0
M  END
>  <Batch_No>  (321) 
STK661820

>  <EC50_nM>  (321) 
ND

>  <Set>  (321) 
Probe-like

>  <Molecular_Weight>  (321) 
309.40541

>  <ALogP>  (321) 
3.438

$$$$
MMV006303
     RDKit          3D

 45 47  0  0  0  0  0  0  0  0999 V2000
    2.0226   -0.8461   -0.2257 C   0  0  0  0  0  0  0  0  0  0  0  0
    0.8499   -1.5523   -0.4275 C   0  0  0  0  0  0  0  0  0  0  0  0
    0.9134   -2.9240   -0.3510 C   0  0  0  0  0  0  0  0  0  0  0  0
    2.0669   -3.6283   -0.0870 C   0  0  0  0  0  0  0  0  0  0  0  0
    3.1930   -2.8996    0.1047 N   0  0  0  0  0  0  0  0  0  0  0  0
   -0.3838   -0.8979   -0.7043 N   0  0  0  0  0  0  0  0  0  0  0  0
   -1.5686   -1.7296   -0.8994 C   0  0  0  0  0  0  0  0  0  0  0  0
   -2.7787   -0.8656   -1.1706 C   0  0  0  0  0  0  0  0  0  0  0  0
   -2.9754   -0.0013   -0.0577 N   0  0  0  0  0  0  0  0  0  0  0  0
   -3.3767   -0.6164    1.1537 C   0  0  0  0  0  0  0  0  0  0  0  0
   -3.5722    0.3527    2.2990 C   0  0  0  0  0  0  0  0  0  0  0  0
   -3.5220    1.2706   -0.3649 C   0  0  0  0  0  0  0  0  0  0  0  0
   -4.9498    1.2382   -0.8385 C   0  0  0  0  0  0  0  0  0  0  0  0
    3.1933   -1.5558    0.0420 C   0  0  0  0  0  0  0  0  0  0  0  0
    4.3472   -0.8332    0.2402 C   0  0  0  0  0  0  0  0  0  0  0  0
    4.3986    0.5428    0.1866 C   0  0  0  0  0  0  0  0  0  0  0  0
    5.5569    1.2651    0.3854 C   0  0  0  0  0  0  0  0  0  0  0  0
    5.5193    2.6425    0.3143 C   0  0  0  0  0  0  0  0  0  0  0  0
    4.3628    3.3409    0.0498 C   0  0  0  0  0  0  0  0  0  0  0  0
    3.2050    2.6021   -0.1487 C   0  0  0  0  0  0  0  0  0  0  0  0
    3.2287    1.2198   -0.0798 C   0  0  0  0  0  0  0  0  0  0  0  0
    2.0504    0.5284   -0.2843 C   0  0  0  0  0  0  0  0  0  0  0  0
    0.0161   -3.5047   -0.5025 H   0  0  0  0  0  0  0  0  0  0  0  0
    2.1023   -4.7092   -0.0317 H   0  0  0  0  0  0  0  0  0  0  0  0
   -0.5182    0.1150   -0.7806 H   0  0  0  0  0  0  0  0  0  0  0  0
   -1.4086   -2.3298   -1.8182 H   0  0  0  0  0  0  0  0  0  0  0  0
   -1.6862   -2.3498    0.0006 H   0  0  0  0  0  0  0  0  0  0  0  0
   -2.5274   -0.2531   -2.0562 H   0  0  0  0  0  0  0  0  0  0  0  0
   -3.6165   -1.5669   -1.3621 H   0  0  0  0  0  0  0  0  0  0  0  0
   -2.6180   -1.3433    1.4925 H   0  0  0  0  0  0  0  0  0  0  0  0
   -4.3331   -1.1740    1.0414 H   0  0  0  0  0  0  0  0  0  0  0  0
   -4.5915    0.7934    2.2755 H   0  0  0  0  0  0  0  0  0  0  0  0
   -2.7640    1.1097    2.3561 H   0  0  0  0  0  0  0  0  0  0  0  0
   -3.5105   -0.2390    3.2349 H   0  0  0  0  0  0  0  0  0  0  0  0
   -2.9185    1.6892   -1.2199 H   0  0  0  0  0  0  0  0  0  0  0  0
   -3.4299    1.9978    0.4378 H   0  0  0  0  0  0  0  0  0  0  0  0
   -5.1622    0.4360   -1.5531 H   0  0  0  0  0  0  0  0  0  0  0  0
   -5.1590    2.1930   -1.3693 H   0  0  0  0  0  0  0  0  0  0  0  0
   -5.6197    1.2340    0.0539 H   0  0  0  0  0  0  0  0  0  0  0  0
    5.2800   -1.3678    0.4542 H   0  0  0  0  0  0  0  0  0  0  0  0
    6.4844    0.7464    0.5957 H   0  0  0  0  0  0  0  0  0  0  0  0
    6.4151    3.2305    0.4670 H   0  0  0  0  0  0  0  0  0  0  0  0
    4.3320    4.4306   -0.0064 H   0  0  0  0  0  0  0  0  0  0  0  0
    2.2823    3.1149   -0.3573 H   0  0  0  0  0  0  0  0  0  0  0  0
    1.1701    1.0941   -0.4887 H   0  0  0  0  0  0  0  0  0  0  0  0
  1  2  2  0
  2  3  1  0
  3  4  2  0
  4  5  1  0
  2  6  1  0
  6  7  1  0
  7  8  1  0
  8  9  1  0
  9 10  1  0
 10 11  1  0
  9 12  1  0
 12 13  1  0
  1 14  1  0
 14 15  1  0
 15 16  2  0
 16 17  1  0
 17 18  2  0
 18 19  1  0
 19 20  2  0
 16 21  1  0
 21 22  2  0
 22  1  1  0
 14  5  2  0
 21 20  1  0
  3 23  1  0
  4 24  1  0
  6 25  1  0
  7 26  1  0
  7 27  1  0
  8 28  1  0
  8 29  1  0
 10 30  1  0
 10 31  1  0
 11 32  1  0
 11 33  1  0
 11 34  1  0
 12 35  1  0
 12 36  1  0
 13 37  1  0
 13 38  1  0
 13 39  1  0
 15 40  1  0
 17 41  1  0
 18 42  1  0
 19 43  1  0
 20 44  1  0
 22 45  1  0
M  END
>  <Batch_No>  (322) 
0075-0021

>  <EC50_nM>  (322) 
391

>  <Set>  (322) 
Probe-like

>  <Molecular_Weight>  (322) 
293.40602

>  <ALogP>  (322) 
3.569

$$$$
MMV667490
     RDKit          3D

 64 69  0  0  0  0  0  0  0  0999 V2000
    0.0717    0.6071   -0.3317 C   0  0  0  0  0  0  0  0  0  0  0  0
    0.3025    1.7521    0.3788 C   0  0  0  0  0  0  0  0  0  0  0  0
    1.5024    1.9283    0.9355 N   0  0  0  0  0  0  0  0  0  0  0  0
    2.4662    0.9914    0.7972 C   0  0  0  0  0  0  0  0  0  0  0  0
    2.3099   -0.1463    0.1187 N   0  0  0  0  0  0  0  0  0  0  0  0
    3.2768   -1.1829   -0.0467 C   0  0  0  0  0  0  0  0  0  0  0  0
    4.1124   -1.1540   -1.2592 C   0  0  0  0  0  0  0  0  0  0  0  0
    5.0489   -0.0416   -1.5103 C   0  0  0  0  0  0  0  0  0  0  0  0
    6.1292    0.1208   -0.5790 N   0  0  0  0  0  0  0  0  0  0  0  0
    7.3121   -0.5530   -0.7351 C   0  0  0  0  0  0  0  0  0  0  0  0
    8.1944   -0.2157    0.2597 C   0  0  0  0  0  0  0  0  0  0  0  0
    7.5443    0.6736    1.0317 N   0  0  0  0  0  0  0  0  0  0  0  0
    6.2962    0.8663    0.5100 C   0  0  0  0  0  0  0  0  0  0  0  0
    1.0804   -0.3424   -0.4600 C   0  0  0  0  0  0  0  0  0  0  0  0
    0.8061   -1.3832   -1.1321 N   0  0  0  0  0  0  0  0  0  0  0  0
   -0.6793    2.7217    0.5281 O   0  0  0  0  0  0  0  0  0  0  0  0
   -1.9355    2.5615   -0.0415 C   0  0  0  0  0  0  0  0  0  0  0  0
   -2.1687    1.4137   -0.7543 C   0  0  0  0  0  0  0  0  0  0  0  0
   -3.4476    1.2921   -1.3117 C   0  0  0  0  0  0  0  0  0  0  0  0
   -4.3993    2.2944   -1.1332 C   0  0  0  0  0  0  0  0  0  0  0  0
   -4.1327    3.4396   -0.4089 C   0  0  0  0  0  0  0  0  0  0  0  0
   -5.0397    4.4391   -0.2147 C   0  0  0  0  0  0  0  0  0  0  0  0
   -4.7727    5.5881    0.5117 C   0  0  0  0  0  0  0  0  0  0  0  0
   -3.5142    5.7079    1.0603 C   0  0  0  0  0  0  0  0  0  0  0  0
   -2.5920    4.7022    0.8685 C   0  0  0  0  0  0  0  0  0  0  0  0
   -2.8704    3.5597    0.1412 C   0  0  0  0  0  0  0  0  0  0  0  0
   -1.2111    0.3217   -0.9789 C   0  0  0  0  0  0  0  0  0  0  0  0
   -1.7583   -1.0064   -0.6092 C   0  0  0  0  0  0  0  0  0  0  0  0
   -2.4118   -1.8355   -1.4962 C   0  0  0  0  0  0  0  0  0  0  0  0
   -2.8762   -3.0501   -1.0274 C   0  0  0  0  0  0  0  0  0  0  0  0
   -2.7023   -3.4484    0.2963 C   0  0  0  0  0  0  0  0  0  0  0  0
   -3.1734   -4.6666    0.7473 O   0  0  0  0  0  0  0  0  0  0  0  0
   -3.8499   -5.5755   -0.0819 C   0  0  0  0  0  0  0  0  0  0  0  0
   -2.0497   -2.6155    1.1735 C   0  0  0  0  0  0  0  0  0  0  0  0
   -1.8424   -2.9571    2.5169 O   0  0  0  0  0  0  0  0  0  0  0  0
   -1.1675   -2.0530    3.3512 C   0  0  0  0  0  0  0  0  0  0  0  0
   -1.5768   -1.3928    0.7211 C   0  0  0  0  0  0  0  0  0  0  0  0
    3.3941    1.1793    1.2729 H   0  0  0  0  0  0  0  0  0  0  0  0
    2.8454   -2.2263    0.0258 H   0  0  0  0  0  0  0  0  0  0  0  0
    4.0063   -1.1933    0.8359 H   0  0  0  0  0  0  0  0  0  0  0  0
    3.4483   -1.3093   -2.1763 H   0  0  0  0  0  0  0  0  0  0  0  0
    4.7482   -2.1031   -1.3034 H   0  0  0  0  0  0  0  0  0  0  0  0
    5.5118   -0.2333   -2.5271 H   0  0  0  0  0  0  0  0  0  0  0  0
    4.5217    0.9419   -1.6787 H   0  0  0  0  0  0  0  0  0  0  0  0
    7.5634   -1.2643   -1.5200 H   0  0  0  0  0  0  0  0  0  0  0  0
    9.1990   -0.5873    0.3929 H   0  0  0  0  0  0  0  0  0  0  0  0
    5.6102    1.5477    0.9636 H   0  0  0  0  0  0  0  0  0  0  0  0
    1.3978   -2.1934   -1.3453 H   0  0  0  0  0  0  0  0  0  0  0  0
   -3.7526    0.4436   -1.8896 H   0  0  0  0  0  0  0  0  0  0  0  0
   -5.3937    2.2085   -1.5619 H   0  0  0  0  0  0  0  0  0  0  0  0
   -6.0218    4.3134   -0.6604 H   0  0  0  0  0  0  0  0  0  0  0  0
   -5.5452    6.3547    0.6311 H   0  0  0  0  0  0  0  0  0  0  0  0
   -3.2889    6.5825    1.6217 H   0  0  0  0  0  0  0  0  0  0  0  0
   -1.5922    4.8164    1.3147 H   0  0  0  0  0  0  0  0  0  0  0  0
   -1.0014    0.3391   -2.0914 H   0  0  0  0  0  0  0  0  0  0  0  0
   -2.5439   -1.5273   -2.5152 H   0  0  0  0  0  0  0  0  0  0  0  0
   -3.3848   -3.6806   -1.7439 H   0  0  0  0  0  0  0  0  0  0  0  0
   -4.6912   -5.0948   -0.6391 H   0  0  0  0  0  0  0  0  0  0  0  0
   -3.2126   -6.1028   -0.7967 H   0  0  0  0  0  0  0  0  0  0  0  0
   -4.2785   -6.3559    0.5907 H   0  0  0  0  0  0  0  0  0  0  0  0
   -0.9368   -2.5473    4.3264 H   0  0  0  0  0  0  0  0  0  0  0  0
   -1.6555   -1.0674    3.4567 H   0  0  0  0  0  0  0  0  0  0  0  0
   -0.1642   -1.8588    2.8792 H   0  0  0  0  0  0  0  0  0  0  0  0
   -1.0647   -0.7430    1.4159 H   0  0  0  0  0  0  0  0  0  0  0  0
  1  2  2  0
  2  3  1  0
  3  4  2  0
  4  5  1  0
  5  6  1  0
  6  7  1  0
  7  8  1  0
  8  9  1  0
  9 10  1  0
 10 11  2  0
 11 12  1  0
  9 13  1  0
  5 14  1  0
 14 15  2  3
  2 16  1  0
 16 17  1  0
 17 18  2  0
 18 19  1  0
 19 20  2  0
 20 21  1  0
 21 22  1  0
 22 23  2  0
 23 24  1  0
 24 25  2  0
 21 26  2  0
 18 27  1  0
 27 28  1  0
 28 29  2  0
 29 30  1  0
 30 31  2  0
 31 32  1  0
 32 33  1  0
 31 34  1  0
 34 35  1  0
 35 36  1  0
 34 37  2  0
 14  1  1  0
 27  1  1  0
 13 12  2  0
 26 17  1  0
 26 25  1  0
 37 28  1  0
  4 38  1  0
  6 39  1  0
  6 40  1  0
  7 41  1  0
  7 42  1  0
  8 43  1  0
  8 44  1  0
 10 45  1  0
 11 46  1  0
 13 47  1  0
 15 48  1  0
 19 49  1  0
 20 50  1  0
 22 51  1  0
 23 52  1  0
 24 53  1  0
 25 54  1  0
 27 55  1  0
 29 56  1  0
 30 57  1  0
 33 58  1  0
 33 59  1  0
 33 60  1  0
 36 61  1  0
 36 62  1  0
 36 63  1  0
 37 64  1  0
M  END
>  <Batch_No>  (323) 
STK270906

>  <EC50_nM>  (323) 
1790

>  <Set>  (323) 
Probe-like

>  <Molecular_Weight>  (323) 
493.55637

>  <ALogP>  (323) 
3.744

$$$$
MMV667492
     RDKit          3D

 42 44  0  0  0  0  0  0  0  0999 V2000
   -1.2044    0.8385   -0.6683 C   0  0  0  0  0  0  0  0  0  0  0  0
   -0.7130    2.1210   -1.0405 N   0  0  0  0  0  0  0  0  0  0  0  0
   -0.6323    3.2329   -0.1010 C   0  0  0  0  0  0  0  0  0  0  0  0
   -0.2808    2.3691   -2.3445 N   0  0  0  0  0  0  0  0  0  0  0  0
   -1.1011    2.5759   -3.2713 O   0  0  0  0  0  0  0  0  0  0  0  0
   -0.5370   -0.2851   -0.8816 C   0  0  0  0  0  0  0  0  0  0  0  0
    0.7474   -0.3100   -1.5103 N   0  0  0  0  0  0  0  0  0  0  0  0
    1.9786   -0.2372   -0.7880 C   0  0  0  0  0  0  0  0  0  0  0  0
    2.1814   -1.3617    0.2068 C   0  0  0  0  0  0  0  0  0  0  0  0
    3.5451   -1.2052    0.8137 C   0  0  0  0  0  0  0  0  0  0  0  0
    4.3138   -0.0224    0.2912 C   0  0  0  0  0  0  0  0  0  0  0  0
    3.5038    1.2128    0.5282 C   0  0  0  0  0  0  0  0  0  0  0  0
    2.1556    1.1150   -0.1393 C   0  0  0  0  0  0  0  0  0  0  0  0
   -1.1407   -1.5438   -0.4566 C   0  0  0  0  0  0  0  0  0  0  0  0
   -0.5485   -2.6566   -0.6342 O   0  0  0  0  0  0  0  0  0  0  0  0
   -2.4430   -1.6067    0.1897 C   0  0  0  0  0  0  0  0  0  0  0  0
   -3.0187   -2.7927    0.5936 C   0  0  0  0  0  0  0  0  0  0  0  0
   -4.2673   -2.7970    1.2076 C   0  0  0  0  0  0  0  0  0  0  0  0
   -4.9662   -1.6148    1.4305 C   0  0  0  0  0  0  0  0  0  0  0  0
   -4.3841   -0.4303    1.0237 C   0  0  0  0  0  0  0  0  0  0  0  0
   -3.1440   -0.4324    0.4144 C   0  0  0  0  0  0  0  0  0  0  0  0
   -2.5307    0.8185   -0.0145 C   0  0  0  0  0  0  0  0  0  0  0  0
   -3.1588    1.9058    0.1833 O   0  0  0  0  0  0  0  0  0  0  0  0
   -0.9150    2.9357    0.9270 H   0  0  0  0  0  0  0  0  0  0  0  0
    0.4186    3.5969   -0.0264 H   0  0  0  0  0  0  0  0  0  0  0  0
   -1.2617    4.0715   -0.4084 H   0  0  0  0  0  0  0  0  0  0  0  0
    0.7124   -0.3881   -2.5711 H   0  0  0  0  0  0  0  0  0  0  0  0
    2.8073   -0.3340   -1.5155 H   0  0  0  0  0  0  0  0  0  0  0  0
    2.1871   -2.3116   -0.3709 H   0  0  0  0  0  0  0  0  0  0  0  0
    1.3602   -1.3509    0.9784 H   0  0  0  0  0  0  0  0  0  0  0  0
    4.1580   -2.1473    0.7828 H   0  0  0  0  0  0  0  0  0  0  0  0
    3.3956   -1.0060    1.9123 H   0  0  0  0  0  0  0  0  0  0  0  0
    5.2177    0.0656    0.9619 H   0  0  0  0  0  0  0  0  0  0  0  0
    4.6851   -0.1417   -0.7420 H   0  0  0  0  0  0  0  0  0  0  0  0
    4.0460    2.1423    0.2055 H   0  0  0  0  0  0  0  0  0  0  0  0
    3.4186    1.3264    1.6373 H   0  0  0  0  0  0  0  0  0  0  0  0
    2.1031    1.8708   -0.9629 H   0  0  0  0  0  0  0  0  0  0  0  0
    1.3880    1.2946    0.6548 H   0  0  0  0  0  0  0  0  0  0  0  0
   -2.4920   -3.7328    0.4306 H   0  0  0  0  0  0  0  0  0  0  0  0
   -4.7524   -3.7011    1.5381 H   0  0  0  0  0  0  0  0  0  0  0  0
   -5.9382   -1.6041    1.9071 H   0  0  0  0  0  0  0  0  0  0  0  0
   -4.8934    0.5202    1.1770 H   0  0  0  0  0  0  0  0  0  0  0  0
  1  2  1  0
  2  3  1  0
  2  4  1  0
  4  5  2  0
  1  6  2  0
  6  7  1  0
  7  8  1  0
  8  9  1  0
  9 10  1  0
 10 11  1  0
 11 12  1  0
 12 13  1  0
  6 14  1  0
 14 15  2  0
 14 16  1  0
 16 17  1  0
 17 18  2  0
 18 19  1  0
 19 20  2  0
 16 21  2  0
 21 22  1  0
 22 23  2  0
 22  1  1  0
 13  8  1  0
 21 20  1  0
  3 24  1  0
  3 25  1  0
  3 26  1  0
  7 27  1  0
  8 28  1  0
  9 29  1  0
  9 30  1  0
 10 31  1  0
 10 32  1  0
 11 33  1  0
 11 34  1  0
 12 35  1  0
 12 36  1  0
 13 37  1  0
 13 38  1  0
 17 39  1  0
 18 40  1  0
 19 41  1  0
 20 42  1  0
M  END
>  <Batch_No>  (324) 
STK529340

>  <EC50_nM>  (324) 
1190

>  <Set>  (324) 
Probe-like

>  <Molecular_Weight>  (324) 
313.35106

>  <ALogP>  (324) 
2.392

$$$$
MMV019881
     RDKit          2D

108114  0  0  0  0  0  0  0  0999 V2000
    1.2709   -4.2535    0.0000 O   0  0  0  0  0  0  0  0  0  0  0  0
    2.4200   -3.2893    0.0000 C   0  0  0  0  0  0  0  0  0  0  0  0
    2.1595   -1.8121    0.0000 N   0  0  0  0  0  0  0  0  0  0  0  0
    0.7500   -1.2990    0.0000 C   0  0  0  0  0  0  0  0  0  0  0  0
    1.5000    0.0000    0.0000 C   0  0  0  0  0  0  0  0  0  0  0  0
    0.7500    1.2990    0.0000 C   0  0  0  0  0  0  0  0  0  0  0  0
   -0.7500    1.2990    0.0000 N   0  0  0  0  0  0  0  0  0  0  0  0
   -1.5000    2.5981    0.0000 C   0  0  0  0  0  0  0  0  0  0  0  0
   -2.2500    3.8971    0.0000 C   0  0  0  0  0  0  0  0  0  0  0  0
   -1.5000    5.1962    0.0000 C   0  0  0  0  0  0  0  0  0  0  0  0
   -2.2500    6.4952    0.0000 C   0  0  0  0  0  0  0  0  0  0  0  0
   -3.7500    6.4952    0.0000 C   0  0  0  0  0  0  0  0  0  0  0  0
   -4.5000    5.1962    0.0000 C   0  0  0  0  0  0  0  0  0  0  0  0
   -3.7500    3.8971    0.0000 C   0  0  0  0  0  0  0  0  0  0  0  0
   -1.5000   -0.0000    0.0000 C   0  0  0  0  0  0  0  0  0  0  0  0
   -0.7500   -1.2990    0.0000 C   0  0  0  0  0  0  0  0  0  0  0  0
    3.8296   -3.8023    0.0000 C   0  0  0  0  0  0  0  0  0  0  0  0
    4.0900   -5.2795    0.0000 C   0  0  0  0  0  0  0  0  0  0  0  0
    5.4996   -5.7926    0.0000 C   0  0  0  0  0  0  0  0  0  0  0  0
    6.6486   -4.8284    0.0000 C   0  0  0  0  0  0  0  0  0  0  0  0
    6.3882   -3.3512    0.0000 C   0  0  0  0  0  0  0  0  0  0  0  0
    4.9786   -2.8381    0.0000 C   0  0  0  0  0  0  0  0  0  0  0  0
    7.5372   -2.3870    0.0000 C   0  0  0  0  0  0  0  0  0  0  0  0
    8.7401   -2.9999    0.0000 O   0  0  0  0  0  0  0  0  0  0  0  0
    7.2768   -0.9098    0.0000 N   0  0  0  0  0  0  0  0  0  0  0  0
    8.4258    0.0544    0.0000 C   0  0  0  0  0  0  0  0  0  0  0  0
    9.1758   -1.2446    0.0000 C   0  0  0  0  0  0  0  0  0  0  0  0
   10.6758   -1.2446    0.0000 C   0  0  0  0  0  0  0  0  0  0  0  0
   11.4258    0.0544    0.0000 N   0  0  0  0  0  0  0  0  0  0  0  0
   12.9258    0.0544    0.0000 C   0  0  0  0  0  0  0  0  0  0  0  0
   14.4258    0.0544    0.0000 C   0  0  0  0  0  0  0  0  0  0  0  0
   15.1758   -1.2446    0.0000 C   0  0  0  0  0  0  0  0  0  0  0  0
   16.6758   -1.2446    0.0000 C   0  0  0  0  0  0  0  0  0  0  0  0
   17.4258    0.0544    0.0000 C   0  0  0  0  0  0  0  0  0  0  0  0
   16.6758    1.3535    0.0000 C   0  0  0  0  0  0  0  0  0  0  0  0
   15.1758    1.3535    0.0000 C   0  0  0  0  0  0  0  0  0  0  0  0
   10.6758    1.3535    0.0000 C   0  0  0  0  0  0  0  0  0  0  0  0
    9.1758    1.3535    0.0000 C   0  0  0  0  0  0  0  0  0  0  0  0
    5.7600   -7.2698    0.0000 C   0  0  0  0  0  0  0  0  0  0  0  0
    4.6110   -8.2339    0.0000 O   0  0  0  0  0  0  0  0  0  0  0  0
    7.1696   -7.7828    0.0000 N   0  0  0  0  0  0  0  0  0  0  0  0
    7.4300   -9.2600    0.0000 C   0  0  0  0  0  0  0  0  0  0  0  0
    8.8396   -8.7470    0.0000 C   0  0  0  0  0  0  0  0  0  0  0  0
    9.9887   -9.7112    0.0000 C   0  0  0  0  0  0  0  0  0  0  0  0
    9.7282  -11.1884    0.0000 N   0  0  0  0  0  0  0  0  0  0  0  0
   10.8772  -12.1525    0.0000 C   0  0  0  0  0  0  0  0  0  0  0  0
   12.0263  -13.1167    0.0000 C   0  0  0  0  0  0  0  0  0  0  0  0
   11.7658  -14.5939    0.0000 C   0  0  0  0  0  0  0  0  0  0  0  0
   12.9149  -15.5581    0.0000 C   0  0  0  0  0  0  0  0  0  0  0  0
   14.3244  -15.0451    0.0000 C   0  0  0  0  0  0  0  0  0  0  0  0
   14.5849  -13.5679    0.0000 C   0  0  0  0  0  0  0  0  0  0  0  0
   13.4359  -12.6037    0.0000 C   0  0  0  0  0  0  0  0  0  0  0  0
    8.3186  -11.7014    0.0000 C   0  0  0  0  0  0  0  0  0  0  0  0
    7.1696  -10.7372    0.0000 C   0  0  0  0  0  0  0  0  0  0  0  0
    2.9849   -1.2761    0.0000 H   0  0  0  0  0  0  0  0  0  0  0  0
    0.4895   -2.7762    0.0000 H   0  0  0  0  0  0  0  0  0  0  0  0
    2.6491    0.9642    0.0000 H   0  0  0  0  0  0  0  0  0  0  0  0
    2.3254   -0.5360    0.0000 H   0  0  0  0  0  0  0  0  0  0  0  0
    0.6715    2.7970    0.0000 H   0  0  0  0  0  0  0  0  0  0  0  0
    2.1595    1.8121    0.0000 H   0  0  0  0  0  0  0  0  0  0  0  0
   -2.8808    2.0120    0.0000 H   0  0  0  0  0  0  0  0  0  0  0  0
   -0.3021    3.5008    0.0000 H   0  0  0  0  0  0  0  0  0  0  0  0
    0.0000    5.1962    0.0000 H   0  0  0  0  0  0  0  0  0  0  0  0
   -1.5000    7.7942    0.0000 H   0  0  0  0  0  0  0  0  0  0  0  0
   -4.5000    7.7942    0.0000 H   0  0  0  0  0  0  0  0  0  0  0  0
   -6.0000    5.1962    0.0000 H   0  0  0  0  0  0  0  0  0  0  0  0
   -4.5000    2.5981    0.0000 H   0  0  0  0  0  0  0  0  0  0  0  0
   -2.6491   -0.9642    0.0000 H   0  0  0  0  0  0  0  0  0  0  0  0
   -2.7580    0.8169    0.0000 H   0  0  0  0  0  0  0  0  0  0  0  0
   -0.4895   -2.7762    0.0000 H   0  0  0  0  0  0  0  0  0  0  0  0
   -2.1595   -1.8121    0.0000 H   0  0  0  0  0  0  0  0  0  0  0  0
    2.9410   -6.2437    0.0000 H   0  0  0  0  0  0  0  0  0  0  0  0
    8.0582   -5.3414    0.0000 H   0  0  0  0  0  0  0  0  0  0  0  0
    4.7181   -1.3609    0.0000 H   0  0  0  0  0  0  0  0  0  0  0  0
    5.8672   -0.3967    0.0000 H   0  0  0  0  0  0  0  0  0  0  0  0
    7.2768    1.0186    0.0000 H   0  0  0  0  0  0  0  0  0  0  0  0
    9.5311   -2.4065    0.0000 H   0  0  0  0  0  0  0  0  0  0  0  0
    8.2693   -1.8561    0.0000 H   0  0  0  0  0  0  0  0  0  0  0  0
   12.0123   -1.9256    0.0000 H   0  0  0  0  0  0  0  0  0  0  0  0
   10.4414   -2.5741    0.0000 H   0  0  0  0  0  0  0  0  0  0  0  0
   13.1087   -1.4344    0.0000 H   0  0  0  0  0  0  0  0  0  0  0  0
   13.1087    1.5432    0.0000 H   0  0  0  0  0  0  0  0  0  0  0  0
   14.4258   -2.5437    0.0000 H   0  0  0  0  0  0  0  0  0  0  0  0
   17.4258   -2.5437    0.0000 H   0  0  0  0  0  0  0  0  0  0  0  0
   18.9258    0.0544    0.0000 H   0  0  0  0  0  0  0  0  0  0  0  0
   17.4258    2.6525    0.0000 H   0  0  0  0  0  0  0  0  0  0  0  0
   14.4258    2.6525    0.0000 H   0  0  0  0  0  0  0  0  0  0  0  0
   10.4153    2.8307    0.0000 H   0  0  0  0  0  0  0  0  0  0  0  0
   12.0123    2.0345    0.0000 H   0  0  0  0  0  0  0  0  0  0  0  0
    7.7663    1.8665    0.0000 H   0  0  0  0  0  0  0  0  0  0  0  0
    9.4363    2.8307    0.0000 H   0  0  0  0  0  0  0  0  0  0  0  0
    7.8407   -7.0630    0.0000 H   0  0  0  0  0  0  0  0  0  0  0  0
    5.9300   -9.2600    0.0000 H   0  0  0  0  0  0  0  0  0  0  0  0
    9.9887   -7.7828    0.0000 H   0  0  0  0  0  0  0  0  0  0  0  0
    8.4551   -7.8411    0.0000 H   0  0  0  0  0  0  0  0  0  0  0  0
   11.4502  -10.0485    0.0000 H   0  0  0  0  0  0  0  0  0  0  0  0
   10.7387   -8.4121    0.0000 H   0  0  0  0  0  0  0  0  0  0  0  0
   11.9743  -11.1296    0.0000 H   0  0  0  0  0  0  0  0  0  0  0  0
   10.0603  -13.4106    0.0000 H   0  0  0  0  0  0  0  0  0  0  0  0
   10.3563  -15.1070    0.0000 H   0  0  0  0  0  0  0  0  0  0  0  0
   12.6544  -17.0353    0.0000 H   0  0  0  0  0  0  0  0  0  0  0  0
   15.4735  -16.0093    0.0000 H   0  0  0  0  0  0  0  0  0  0  0  0
   15.9945  -13.0549    0.0000 H   0  0  0  0  0  0  0  0  0  0  0  0
   13.6963  -11.1265    0.0000 H   0  0  0  0  0  0  0  0  0  0  0  0
    7.1696  -12.6656    0.0000 H   0  0  0  0  0  0  0  0  0  0  0  0
    8.9047  -13.0822    0.0000 H   0  0  0  0  0  0  0  0  0  0  0  0
    5.7600  -10.2242    0.0000 H   0  0  0  0  0  0  0  0  0  0  0  0
    6.4196  -12.0363    0.0000 H   0  0  0  0  0  0  0  0  0  0  0  0
  1  2  2  0
  2  3  1  0
  3  4  1  0
  4  5  1  0
  5  6  1  0
  6  7  1  0
  7  8  1  0
  8  9  1  0
  9 10  2  0
 10 11  1  0
 11 12  2  0
 12 13  1  0
 13 14  2  0
  7 15  1  0
 15 16  1  0
  2 17  1  0
 17 18  2  0
 18 19  1  0
 19 20  2  0
 20 21  1  0
 21 22  2  0
 21 23  1  0
 23 24  2  0
 23 25  1  0
 25 26  1  0
 26 27  1  0
 27 28  1  0
 28 29  1  0
 29 30  1  0
 30 31  1  0
 31 32  2  0
 32 33  1  0
 33 34  2  0
 34 35  1  0
 35 36  2  0
 29 37  1  0
 37 38  1  0
 19 39  1  0
 39 40  2  0
 39 41  1  0
 41 42  1  0
 42 43  1  0
 43 44  1  0
 44 45  1  0
 45 46  1  0
 46 47  1  0
 47 48  2  0
 48 49  1  0
 49 50  2  0
 50 51  1  0
 51 52  2  0
 45 53  1  0
 53 54  1  0
 16  4  1  0
 14  9  1  0
 22 17  1  0
 38 26  1  0
 36 31  1  0
 54 42  1  0
 52 47  1  0
  3 55  1  0
  4 56  1  0
  5 57  1  0
  5 58  1  0
  6 59  1  0
  6 60  1  0
  8 61  1  0
  8 62  1  0
 10 63  1  0
 11 64  1  0
 12 65  1  0
 13 66  1  0
 14 67  1  0
 15 68  1  0
 15 69  1  0
 16 70  1  0
 16 71  1  0
 18 72  1  0
 20 73  1  0
 22 74  1  0
 25 75  1  0
 26 76  1  0
 27 77  1  0
 27 78  1  0
 28 79  1  0
 28 80  1  0
 30 81  1  0
 30 82  1  0
 32 83  1  0
 33 84  1  0
 34 85  1  0
 35 86  1  0
 36 87  1  0
 37 88  1  0
 37 89  1  0
 38 90  1  0
 38 91  1  0
 41 92  1  0
 42 93  1  0
 43 94  1  0
 43 95  1  0
 44 96  1  0
 44 97  1  0
 46 98  1  0
 46 99  1  0
 48100  1  0
 49101  1  0
 50102  1  0
 51103  1  0
 52104  1  0
 53105  1  0
 53106  1  0
 54107  1  0
 54108  1  0
M  END
>  <Batch_No>  (325) 
STK423236

>  <EC50_nM>  (325) 
646

>  <Set>  (325) 
Probe-like

>  <Molecular_Weight>  (325) 
726.94866

>  <ALogP>  (325) 
4.537

$$$$
MMV000478
     RDKit          3D

 46 48  0  0  0  0  0  0  0  0999 V2000
   -4.4333   -2.7078    0.1191 C   0  0  0  0  0  0  0  0  0  0  0  0
   -4.4517   -1.5083    1.0592 C   0  0  0  0  0  0  0  0  0  0  0  0
   -3.5798   -0.5018    0.6524 O   0  0  0  0  0  0  0  0  0  0  0  0
   -2.2077   -0.6023    0.4933 C   0  0  0  0  0  0  0  0  0  0  0  0
   -1.5120   -1.7665    0.7304 C   0  0  0  0  0  0  0  0  0  0  0  0
   -0.1221   -1.8498    0.5637 C   0  0  0  0  0  0  0  0  0  0  0  0
    0.4937   -3.1454    0.8578 C   0  0  0  0  0  0  0  0  0  0  0  0
    1.9709   -3.0856    0.5816 C   0  0  0  0  0  0  0  0  0  0  0  0
    2.4580   -1.7902    1.0086 N   0  0  0  0  0  0  0  0  0  0  0  0
    2.0157   -0.8342   -0.0186 C   0  0  0  0  0  0  0  0  0  0  0  0
    2.7532    0.4384    0.0408 C   0  0  0  0  0  0  0  0  0  0  0  0
    3.3919    0.8717    1.2066 C   0  0  0  0  0  0  0  0  0  0  0  0
    4.0700    2.0704    1.2523 C   0  0  0  0  0  0  0  0  0  0  0  0
    4.8838    2.6458    2.6995 Cl  0  0  0  0  0  0  0  0  0  0  0  0
    4.1386    2.8862    0.1361 C   0  0  0  0  0  0  0  0  0  0  0  0
    3.5117    2.4701   -1.0234 C   0  0  0  0  0  0  0  0  0  0  0  0
    2.8243    1.2539   -1.0688 C   0  0  0  0  0  0  0  0  0  0  0  0
    2.2377    0.9433   -2.2875 O   0  0  0  0  0  0  0  0  0  0  0  0
    0.5515   -0.7174    0.1479 C   0  0  0  0  0  0  0  0  0  0  0  0
   -0.1679    0.4301   -0.0807 C   0  0  0  0  0  0  0  0  0  0  0  0
   -1.5361    0.5247    0.0797 C   0  0  0  0  0  0  0  0  0  0  0  0
   -2.2341    1.7090   -0.1627 O   0  0  0  0  0  0  0  0  0  0  0  0
   -1.4655    2.8353   -0.5897 C   0  0  0  0  0  0  0  0  0  0  0  0
   -2.3549    4.0366   -0.8104 C   0  0  0  0  0  0  0  0  0  0  0  0
   -4.2235   -3.6363    0.6787 H   0  0  0  0  0  0  0  0  0  0  0  0
   -3.7113   -2.5393   -0.7016 H   0  0  0  0  0  0  0  0  0  0  0  0
   -5.4121   -2.8653   -0.3720 H   0  0  0  0  0  0  0  0  0  0  0  0
   -5.4773   -1.0839    1.0160 H   0  0  0  0  0  0  0  0  0  0  0  0
   -4.2989   -1.8766    2.0934 H   0  0  0  0  0  0  0  0  0  0  0  0
   -2.0756   -2.6287    1.0537 H   0  0  0  0  0  0  0  0  0  0  0  0
    0.0488   -3.9610    0.2487 H   0  0  0  0  0  0  0  0  0  0  0  0
    0.3794   -3.3608    1.9548 H   0  0  0  0  0  0  0  0  0  0  0  0
    2.1119   -3.1214   -0.5199 H   0  0  0  0  0  0  0  0  0  0  0  0
    2.5348   -3.8922    1.0852 H   0  0  0  0  0  0  0  0  0  0  0  0
    1.9964   -1.5087    1.8835 H   0  0  0  0  0  0  0  0  0  0  0  0
    2.2335   -1.3885   -0.9825 H   0  0  0  0  0  0  0  0  0  0  0  0
    3.3523    0.2604    2.0771 H   0  0  0  0  0  0  0  0  0  0  0  0
    4.6632    3.8380    0.1324 H   0  0  0  0  0  0  0  0  0  0  0  0
    3.5653    3.1173   -1.9115 H   0  0  0  0  0  0  0  0  0  0  0  0
    2.0923   -0.0153   -2.5795 H   0  0  0  0  0  0  0  0  0  0  0  0
    0.3364    1.3305   -0.4007 H   0  0  0  0  0  0  0  0  0  0  0  0
   -0.7198    3.1243    0.1866 H   0  0  0  0  0  0  0  0  0  0  0  0
   -0.8613    2.5973   -1.5023 H   0  0  0  0  0  0  0  0  0  0  0  0
   -2.0470    4.5783   -1.7293 H   0  0  0  0  0  0  0  0  0  0  0  0
   -2.3130    4.7141    0.0474 H   0  0  0  0  0  0  0  0  0  0  0  0
   -3.4104    3.7113   -0.9226 H   0  0  0  0  0  0  0  0  0  0  0  0
  1  2  1  0
  2  3  1  0
  3  4  1  0
  4  5  2  0
  5  6  1  0
  6  7  1  0
  7  8  1  0
  8  9  1  0
  9 10  1  0
 10 11  1  0
 11 12  2  0
 12 13  1  0
 13 14  1  0
 13 15  2  0
 15 16  1  0
 16 17  2  0
 17 18  1  0
 10 19  1  0
 19 20  1  0
 20 21  2  0
 21 22  1  0
 22 23  1  0
 23 24  1  0
 21  4  1  0
 19  6  2  0
 17 11  1  0
  1 25  1  0
  1 26  1  0
  1 27  1  0
  2 28  1  0
  2 29  1  0
  5 30  1  0
  7 31  1  0
  7 32  1  0
  8 33  1  0
  8 34  1  0
  9 35  1  0
 10 36  1  0
 12 37  1  0
 15 38  1  0
 16 39  1  0
 18 40  1  0
 20 41  1  0
 23 42  1  0
 23 43  1  0
 24 44  1  0
 24 45  1  0
 24 46  1  0
M  END
>  <Batch_No>  (326) 
STK677757

>  <EC50_nM>  (326) 
746

>  <Set>  (326) 
Probe-like

>  <Molecular_Weight>  (326) 
347.83587

>  <ALogP>  (326) 
4.141

$$$$
MMV020403
     RDKit          3D

 62 67  0  0  0  0  0  0  0  0999 V2000
    8.0954    3.3381   -0.0488 C   0  0  0  0  0  0  0  0  0  0  0  0
    7.0241    3.7061   -0.8707 O   0  0  0  0  0  0  0  0  0  0  0  0
    5.8352    3.0160   -0.7760 C   0  0  0  0  0  0  0  0  0  0  0  0
    5.7493    1.9872    0.1282 C   0  0  0  0  0  0  0  0  0  0  0  0
    4.5699    1.2645    0.2572 C   0  0  0  0  0  0  0  0  0  0  0  0
    3.4470    1.5297   -0.4939 C   0  0  0  0  0  0  0  0  0  0  0  0
    3.5498    2.5764   -1.4068 C   0  0  0  0  0  0  0  0  0  0  0  0
    4.7230    3.3002   -1.5395 C   0  0  0  0  0  0  0  0  0  0  0  0
    2.2041    0.7755   -0.3649 C   0  0  0  0  0  0  0  0  0  0  0  0
    0.9272    1.2975   -0.2999 C   0  0  0  0  0  0  0  0  0  0  0  0
    0.0364    0.2672   -0.1820 N   0  0  0  0  0  0  0  0  0  0  0  0
   -1.2679   -0.0773   -0.0700 C   0  0  0  0  0  0  0  0  0  0  0  0
   -2.3373    0.8901   -0.0432 C   0  0  0  0  0  0  0  0  0  0  0  0
   -2.0287    2.1076   -0.1248 O   0  0  0  0  0  0  0  0  0  0  0  0
   -3.7149    0.5897    0.0675 N   0  0  0  0  0  0  0  0  0  0  0  0
   -4.7299    1.6085    0.0881 C   0  0  0  0  0  0  0  0  0  0  0  0
   -5.2829    2.0193   -1.1123 C   0  0  0  0  0  0  0  0  0  0  0  0
   -6.2494    2.9935   -1.0590 C   0  0  0  0  0  0  0  0  0  0  0  0
   -6.6360    3.5265    0.1647 C   0  0  0  0  0  0  0  0  0  0  0  0
   -6.0824    3.1145    1.3602 C   0  0  0  0  0  0  0  0  0  0  0  0
   -5.1110    2.1344    1.2986 C   0  0  0  0  0  0  0  0  0  0  0  0
   -4.3430    1.5401    2.7657 Cl  0  0  0  0  0  0  0  0  0  0  0  0
   -1.2833   -1.4527    0.0026 C   0  0  0  0  0  0  0  0  0  0  0  0
    0.0134   -1.9210   -0.0666 C   0  0  0  0  0  0  0  0  0  0  0  0
    0.3827   -3.3489   -0.0191 C   0  0  0  0  0  0  0  0  0  0  0  0
    1.8283   -3.6179   -0.0656 C   0  0  0  0  0  0  0  0  0  0  0  0
    2.6954   -2.7812   -0.9135 C   0  0  0  0  0  0  0  0  0  0  0  0
    3.1898   -1.4989   -0.3174 C   0  0  0  0  0  0  0  0  0  0  0  0
    2.0928   -0.5578   -0.2875 N   0  0  0  0  0  0  0  0  0  0  0  0
    0.8070   -0.8295   -0.1805 C   0  0  0  0  0  0  0  0  0  0  0  0
   -2.4303   -2.3344    0.1321 C   0  0  0  0  0  0  0  0  0  0  0  0
   -2.8373   -2.6554    1.4161 C   0  0  0  0  0  0  0  0  0  0  0  0
   -3.9229   -3.5041    1.6058 C   0  0  0  0  0  0  0  0  0  0  0  0
   -4.5824   -4.0166    0.4985 C   0  0  0  0  0  0  0  0  0  0  0  0
   -4.1680   -3.6897   -0.7947 C   0  0  0  0  0  0  0  0  0  0  0  0
   -3.0912   -2.8479   -0.9921 C   0  0  0  0  0  0  0  0  0  0  0  0
    8.3177    2.2582   -0.2141 H   0  0  0  0  0  0  0  0  0  0  0  0
    7.7929    3.5205    1.0016 H   0  0  0  0  0  0  0  0  0  0  0  0
    9.0243    3.8817   -0.2420 H   0  0  0  0  0  0  0  0  0  0  0  0
    6.6058    1.7231    0.7577 H   0  0  0  0  0  0  0  0  0  0  0  0
    4.5637    0.4795    0.9740 H   0  0  0  0  0  0  0  0  0  0  0  0
    2.7097    2.8588   -2.0456 H   0  0  0  0  0  0  0  0  0  0  0  0
    4.8203    4.1178   -2.2450 H   0  0  0  0  0  0  0  0  0  0  0  0
    0.6451    2.3567   -0.3346 H   0  0  0  0  0  0  0  0  0  0  0  0
   -4.0289   -0.3928    0.1375 H   0  0  0  0  0  0  0  0  0  0  0  0
   -4.9947    1.6165   -2.0707 H   0  0  0  0  0  0  0  0  0  0  0  0
   -6.7049    3.3391   -1.9867 H   0  0  0  0  0  0  0  0  0  0  0  0
   -7.4038    4.2998    0.2023 H   0  0  0  0  0  0  0  0  0  0  0  0
   -6.3539    3.4999    2.3130 H   0  0  0  0  0  0  0  0  0  0  0  0
   -0.1517   -3.9117   -0.8247 H   0  0  0  0  0  0  0  0  0  0  0  0
   -0.0011   -3.8161    0.9340 H   0  0  0  0  0  0  0  0  0  0  0  0
    1.9678   -4.6883   -0.3726 H   0  0  0  0  0  0  0  0  0  0  0  0
    2.2655   -3.5940    0.9761 H   0  0  0  0  0  0  0  0  0  0  0  0
    2.2108   -2.5404   -1.9040 H   0  0  0  0  0  0  0  0  0  0  0  0
    3.5965   -3.3662   -1.1950 H   0  0  0  0  0  0  0  0  0  0  0  0
    3.9887   -1.0831   -0.9285 H   0  0  0  0  0  0  0  0  0  0  0  0
    3.4835   -1.6510    0.7413 H   0  0  0  0  0  0  0  0  0  0  0  0
   -2.3069   -2.2432    2.2709 H   0  0  0  0  0  0  0  0  0  0  0  0
   -4.2481   -3.7606    2.6245 H   0  0  0  0  0  0  0  0  0  0  0  0
   -5.4348   -4.6829    0.6473 H   0  0  0  0  0  0  0  0  0  0  0  0
   -4.6854   -4.0918   -1.6571 H   0  0  0  0  0  0  0  0  0  0  0  0
   -2.7499   -2.5788   -1.9953 H   0  0  0  0  0  0  0  0  0  0  0  0
  1  2  1  0
  2  3  1  0
  3  4  2  0
  4  5  1  0
  5  6  2  0
  6  7  1  0
  7  8  2  0
  6  9  1  0
  9 10  2  0
 10 11  1  0
 11 12  1  0
 12 13  1  0
 13 14  2  0
 13 15  1  0
 15 16  1  0
 16 17  2  0
 17 18  1  0
 18 19  2  0
 19 20  1  0
 20 21  2  0
 21 22  1  0
 12 23  2  0
 23 24  1  0
 24 25  1  0
 25 26  1  0
 26 27  1  0
 27 28  1  0
 28 29  1  0
 29 30  1  0
 23 31  1  0
 31 32  2  0
 32 33  1  0
 33 34  2  0
 34 35  1  0
 35 36  2  0
  8  3  1  0
 29  9  1  0
 30 11  1  0
 21 16  1  0
 30 24  2  0
 36 31  1  0
  1 37  1  0
  1 38  1  0
  1 39  1  0
  4 40  1  0
  5 41  1  0
  7 42  1  0
  8 43  1  0
 10 44  1  0
 15 45  1  0
 17 46  1  0
 18 47  1  0
 19 48  1  0
 20 49  1  0
 25 50  1  0
 25 51  1  0
 26 52  1  0
 26 53  1  0
 27 54  1  0
 27 55  1  0
 28 56  1  0
 28 57  1  0
 32 58  1  0
 33 59  1  0
 34 60  1  0
 35 61  1  0
 36 62  1  0
M  END
>  <Batch_No>  (327) 
STK572179

>  <EC50_nM>  (327) 
ND

>  <Set>  (327) 
Probe-like

>  <Molecular_Weight>  (327) 
495.99933

>  <ALogP>  (327) 
7.063

$$$$
MMV007764
     RDKit          3D

 43 44  0  0  0  0  0  0  0  0999 V2000
    3.6962   -2.1221    0.5027 C   0  0  0  0  0  0  0  0  0  0  0  0
    3.6674   -1.1168   -0.5994 C   0  0  0  0  0  0  0  0  0  0  0  0
    2.2167   -0.6788   -0.9037 C   0  0  0  0  0  0  0  0  0  0  0  0
    1.6274   -0.0687    0.3326 C   0  0  0  0  0  0  0  0  0  0  0  0
    0.2699    0.4591    0.2717 C   0  0  0  0  0  0  0  0  0  0  0  0
   -0.8829   -0.3313    0.4030 C   0  0  0  0  0  0  0  0  0  0  0  0
   -0.8781   -1.7863    0.4866 C   0  0  0  0  0  0  0  0  0  0  0  0
   -1.0276   -2.5494   -0.7802 C   0  0  0  0  0  0  0  0  0  0  0  0
   -0.9470   -4.0355   -0.3932 C   0  0  0  0  0  0  0  0  0  0  0  0
   -2.1449    0.2886    0.3960 C   0  0  0  0  0  0  0  0  0  0  0  0
   -3.2413   -0.3701    0.4987 N   0  0  0  0  0  0  0  0  0  0  0  0
   -2.2576    1.6591    0.2608 C   0  0  0  0  0  0  0  0  0  0  0  0
   -3.5185    2.2446    0.2621 C   0  0  0  0  0  0  0  0  0  0  0  0
   -3.6634    3.5949    0.1346 C   0  0  0  0  0  0  0  0  0  0  0  0
   -2.5207    4.3533    0.0054 C   0  0  0  0  0  0  0  0  0  0  0  0
   -1.2633    3.7648    0.0045 C   0  0  0  0  0  0  0  0  0  0  0  0
   -1.0971    2.3906    0.1329 C   0  0  0  0  0  0  0  0  0  0  0  0
    0.1345    1.8187    0.1363 N   0  0  0  0  0  0  0  0  0  0  0  0
    1.3369    2.6085   -0.0172 C   0  0  0  0  0  0  0  0  0  0  0  0
    2.7042   -2.5944    0.6633 H   0  0  0  0  0  0  0  0  0  0  0  0
    4.4164   -2.9141    0.2651 H   0  0  0  0  0  0  0  0  0  0  0  0
    4.0304   -1.6641    1.4704 H   0  0  0  0  0  0  0  0  0  0  0  0
    4.1304   -1.4940   -1.5276 H   0  0  0  0  0  0  0  0  0  0  0  0
    4.1937   -0.1977   -0.2737 H   0  0  0  0  0  0  0  0  0  0  0  0
    1.6751   -1.5712   -1.2546 H   0  0  0  0  0  0  0  0  0  0  0  0
    2.2898    0.0094   -1.7628 H   0  0  0  0  0  0  0  0  0  0  0  0
    1.6896   -0.8416    1.1718 H   0  0  0  0  0  0  0  0  0  0  0  0
    2.3113    0.7242    0.7332 H   0  0  0  0  0  0  0  0  0  0  0  0
   -1.6312   -2.1128    1.2431 H   0  0  0  0  0  0  0  0  0  0  0  0
    0.1398   -2.1219    0.8997 H   0  0  0  0  0  0  0  0  0  0  0  0
   -0.3538   -2.2856   -1.5856 H   0  0  0  0  0  0  0  0  0  0  0  0
   -2.0587   -2.3967   -1.2274 H   0  0  0  0  0  0  0  0  0  0  0  0
   -1.9532   -4.4980   -0.3687 H   0  0  0  0  0  0  0  0  0  0  0  0
   -0.2825   -4.5182   -1.1399 H   0  0  0  0  0  0  0  0  0  0  0  0
   -0.4629   -4.1698    0.5966 H   0  0  0  0  0  0  0  0  0  0  0  0
   -3.3363   -1.3881    0.5952 H   0  0  0  0  0  0  0  0  0  0  0  0
   -4.3844    1.6401    0.3625 H   0  0  0  0  0  0  0  0  0  0  0  0
   -4.6522    4.0168    0.1399 H   0  0  0  0  0  0  0  0  0  0  0  0
   -2.6454    5.4231   -0.0950 H   0  0  0  0  0  0  0  0  0  0  0  0
   -0.4346    4.4414   -0.0966 H   0  0  0  0  0  0  0  0  0  0  0  0
    1.2086    3.6444   -0.3013 H   0  0  0  0  0  0  0  0  0  0  0  0
    1.8025    2.6570    1.0107 H   0  0  0  0  0  0  0  0  0  0  0  0
    2.0966    2.0886   -0.6524 H   0  0  0  0  0  0  0  0  0  0  0  0
  1  2  1  0
  2  3  1  0
  3  4  1  0
  4  5  1  0
  5  6  2  0
  6  7  1  0
  7  8  1  0
  8  9  1  0
  6 10  1  0
 10 11  2  3
 10 12  1  0
 12 13  2  0
 13 14  1  0
 14 15  2  0
 15 16  1  0
 16 17  2  0
 17 18  1  0
 18 19  1  0
 18  5  1  0
 17 12  1  0
  1 20  1  0
  1 21  1  0
  1 22  1  0
  2 23  1  0
  2 24  1  0
  3 25  1  0
  3 26  1  0
  4 27  1  0
  4 28  1  0
  7 29  1  0
  7 30  1  0
  8 31  1  0
  8 32  1  0
  9 33  1  0
  9 34  1  0
  9 35  1  0
 11 36  1  0
 13 37  1  0
 14 38  1  0
 15 39  1  0
 16 40  1  0
 19 41  1  0
 19 42  1  0
 19 43  1  0
M  END
>  <Batch_No>  (328) 
STK036105

>  <EC50_nM>  (328) 
716

>  <Set>  (328) 
Probe-like

>  <Molecular_Weight>  (328) 
256.38585

>  <ALogP>  (328) 
4.929

$$$$
MMV665830
     RDKit          3D

 57 58  0  0  0  0  0  0  0  0999 V2000
   -0.5333    0.8524   -2.9957 C   0  0  0  0  0  0  0  0  0  0  0  0
   -1.3212    0.3736   -1.8033 C   0  0  0  0  0  0  0  0  0  0  0  0
   -2.2180    1.4757   -1.2477 C   0  0  0  0  0  0  0  0  0  0  0  0
   -3.2139    0.7315   -0.3861 C   0  0  0  0  0  0  0  0  0  0  0  0
   -2.6610   -0.0490    0.5489 C   0  0  0  0  0  0  0  0  0  0  0  0
   -1.1713   -0.0621    0.5865 C   0  0  0  0  0  0  0  0  0  0  0  0
   -0.5768   -0.3960   -0.7885 C   0  0  0  0  0  0  0  0  0  0  0  0
    0.9037   -0.2711   -0.8074 C   0  0  0  0  0  0  0  0  0  0  0  0
    1.5174    0.9717   -0.6098 N   0  0  0  0  0  0  0  0  0  0  0  0
    2.9092    1.0419   -0.8368 C   0  0  0  0  0  0  0  0  0  0  0  0
    3.8312    0.3024    0.0557 C   0  0  0  0  0  0  0  0  0  0  0  0
    5.2355    0.5929   -0.4496 C   0  0  0  0  0  0  0  0  0  0  0  0
    6.2793   -0.0621    0.2545 N   0  0  0  0  0  0  0  0  0  0  0  0
    6.2955   -1.4989    0.0461 C   0  0  0  0  0  0  0  0  0  0  0  0
    6.4460    0.2936    1.6286 C   0  0  0  0  0  0  0  0  0  0  0  0
   -3.5279   -0.8143    1.4595 C   0  0  0  0  0  0  0  0  0  0  0  0
   -2.9229   -1.0615    2.8271 C   0  0  0  0  0  0  0  0  0  0  0  0
   -4.0712   -2.0679    0.8284 C   0  0  0  0  0  0  0  0  0  0  0  0
   -4.7563    0.0778    1.7254 C   0  0  0  0  0  0  0  0  0  0  0  0
   -5.4987    0.2032    0.4332 C   0  0  0  0  0  0  0  0  0  0  0  0
   -4.6546    0.8872   -0.6104 C   0  0  0  0  0  0  0  0  0  0  0  0
    0.5507    0.6245   -2.9502 H   0  0  0  0  0  0  0  0  0  0  0  0
   -0.7275    1.9467   -3.2021 H   0  0  0  0  0  0  0  0  0  0  0  0
   -0.8633    0.3793   -3.9672 H   0  0  0  0  0  0  0  0  0  0  0  0
   -2.0912   -0.3323   -2.2502 H   0  0  0  0  0  0  0  0  0  0  0  0
   -2.6757    1.9520   -2.1058 H   0  0  0  0  0  0  0  0  0  0  0  0
   -1.6964    2.1281   -0.5468 H   0  0  0  0  0  0  0  0  0  0  0  0
   -0.7658    0.9010    0.9602 H   0  0  0  0  0  0  0  0  0  0  0  0
   -0.8986   -0.8214    1.3482 H   0  0  0  0  0  0  0  0  0  0  0  0
   -0.7811   -1.4790   -0.9105 H   0  0  0  0  0  0  0  0  0  0  0  0
    1.3237   -0.7685   -1.7064 H   0  0  0  0  0  0  0  0  0  0  0  0
    1.2590   -0.9368    0.0398 H   0  0  0  0  0  0  0  0  0  0  0  0
    1.0700    1.8188   -0.9515 H   0  0  0  0  0  0  0  0  0  0  0  0
    3.1907    2.1400   -0.8728 H   0  0  0  0  0  0  0  0  0  0  0  0
    3.0822    0.7205   -1.9104 H   0  0  0  0  0  0  0  0  0  0  0  0
    3.7052   -0.7788    0.0707 H   0  0  0  0  0  0  0  0  0  0  0  0
    3.7529    0.7154    1.0832 H   0  0  0  0  0  0  0  0  0  0  0  0
    5.4079    1.6920   -0.4565 H   0  0  0  0  0  0  0  0  0  0  0  0
    5.2616    0.2600   -1.5182 H   0  0  0  0  0  0  0  0  0  0  0  0
    6.1009   -1.6217   -1.0630 H   0  0  0  0  0  0  0  0  0  0  0  0
    5.5354   -1.9820    0.6522 H   0  0  0  0  0  0  0  0  0  0  0  0
    7.3313   -1.8490    0.2247 H   0  0  0  0  0  0  0  0  0  0  0  0
    6.2975    1.3485    1.8545 H   0  0  0  0  0  0  0  0  0  0  0  0
    7.5175    0.0358    1.8772 H   0  0  0  0  0  0  0  0  0  0  0  0
    5.8363   -0.4073    2.2270 H   0  0  0  0  0  0  0  0  0  0  0  0
   -3.7642   -1.3991    3.4700 H   0  0  0  0  0  0  0  0  0  0  0  0
   -2.5816   -0.0955    3.2074 H   0  0  0  0  0  0  0  0  0  0  0  0
   -2.1622   -1.8456    2.8231 H   0  0  0  0  0  0  0  0  0  0  0  0
   -5.0951   -2.3189    1.2162 H   0  0  0  0  0  0  0  0  0  0  0  0
   -4.1811   -1.8640   -0.2612 H   0  0  0  0  0  0  0  0  0  0  0  0
   -3.3790   -2.9019    0.9586 H   0  0  0  0  0  0  0  0  0  0  0  0
   -4.4070    1.1153    1.9795 H   0  0  0  0  0  0  0  0  0  0  0  0
   -5.3786   -0.3286    2.5293 H   0  0  0  0  0  0  0  0  0  0  0  0
   -6.3822    0.8658    0.6012 H   0  0  0  0  0  0  0  0  0  0  0  0
   -5.9222   -0.7737    0.0676 H   0  0  0  0  0  0  0  0  0  0  0  0
   -4.8705    0.3921   -1.6020 H   0  0  0  0  0  0  0  0  0  0  0  0
   -4.8903    1.9474   -0.7744 H   0  0  0  0  0  0  0  0  0  0  0  0
  1  2  1  0
  2  3  1  0
  3  4  1  0
  4  5  2  0
  5  6  1  0
  6  7  1  0
  7  8  1  0
  8  9  1  0
  9 10  1  0
 10 11  1  0
 11 12  1  0
 12 13  1  0
 13 14  1  0
 13 15  1  0
  5 16  1  0
 16 17  1  0
 16 18  1  0
 16 19  1  0
 19 20  1  0
 20 21  1  0
  7  2  1  0
 21  4  1  0
  1 22  1  0
  1 23  1  0
  1 24  1  0
  2 25  1  0
  3 26  1  0
  3 27  1  0
  6 28  1  0
  6 29  1  0
  7 30  1  0
  8 31  1  0
  8 32  1  0
  9 33  1  0
 10 34  1  0
 10 35  1  0
 11 36  1  0
 11 37  1  0
 12 38  1  0
 12 39  1  0
 14 40  1  0
 14 41  1  0
 14 42  1  0
 15 43  1  0
 15 44  1  0
 15 45  1  0
 17 46  1  0
 17 47  1  0
 17 48  1  0
 18 49  1  0
 18 50  1  0
 18 51  1  0
 19 52  1  0
 19 53  1  0
 20 54  1  0
 20 55  1  0
 21 56  1  0
 21 57  1  0
M  END
>  <Batch_No>  (329) 
OSSK_431618

>  <EC50_nM>  (329) 
1005

>  <Set>  (329) 
Probe-like

>  <Molecular_Weight>  (329) 
292.50253

>  <ALogP>  (329) 
3.872

$$$$
MMV665886
     RDKit          3D

 42 44  0  0  0  0  0  0  0  0999 V2000
   -3.2656   -1.6304   -1.7371 C   0  0  0  0  0  0  0  0  0  0  0  0
   -2.4655   -0.4865   -1.1230 C   0  0  0  0  0  0  0  0  0  0  0  0
   -1.3331   -0.2847   -1.9155 O   0  0  0  0  0  0  0  0  0  0  0  0
   -0.0756   -0.4431   -1.4460 C   0  0  0  0  0  0  0  0  0  0  0  0
    0.2935   -0.8115   -0.1730 C   0  0  0  0  0  0  0  0  0  0  0  0
    1.6203   -0.9492    0.2180 C   0  0  0  0  0  0  0  0  0  0  0  0
    2.6361   -0.7177   -0.6705 C   0  0  0  0  0  0  0  0  0  0  0  0
    3.9863   -0.8640   -0.2506 N   0  0  0  0  0  0  0  0  0  0  0  0
    4.6369    0.2638    0.2833 C   0  0  0  0  0  0  0  0  0  0  0  0
    4.0507    1.3568    0.3858 O   0  0  0  0  0  0  0  0  0  0  0  0
    6.0539    0.0895    0.7182 C   0  0  0  0  0  0  0  0  0  0  0  0
    6.8556    1.0373    1.2538 C   0  0  0  0  0  0  0  0  0  0  0  0
    8.1114    0.7295    1.5968 C   0  0  0  0  0  0  0  0  0  0  0  0
    8.4844   -0.6023    1.3555 C   0  0  0  0  0  0  0  0  0  0  0  0
    6.9831   -1.3815    0.6281 S   0  0  0  0  0  0  0  0  0  0  0  0
    2.2984   -0.3469   -1.9542 C   0  0  0  0  0  0  0  0  0  0  0  0
    0.9788   -0.2127   -2.3338 C   0  0  0  0  0  0  0  0  0  0  0  0
   -3.3033    0.7470   -1.0412 C   0  0  0  0  0  0  0  0  0  0  0  0
   -2.9248    1.7436   -1.6681 O   0  0  0  0  0  0  0  0  0  0  0  0
   -4.5253    0.8241   -0.2680 C   0  0  0  0  0  0  0  0  0  0  0  0
   -5.2168    2.0111   -0.2769 C   0  0  0  0  0  0  0  0  0  0  0  0
   -6.3998    2.1593    0.4458 C   0  0  0  0  0  0  0  0  0  0  0  0
   -6.8915    1.1019    1.1849 C   0  0  0  0  0  0  0  0  0  0  0  0
   -8.3790    1.2801    2.0968 Cl  0  0  0  0  0  0  0  0  0  0  0  0
   -6.2041   -0.0841    1.1961 C   0  0  0  0  0  0  0  0  0  0  0  0
   -5.0367   -0.2167    0.4776 C   0  0  0  0  0  0  0  0  0  0  0  0
   -4.3129   -1.2736   -1.8731 H   0  0  0  0  0  0  0  0  0  0  0  0
   -3.1969   -2.5498   -1.1497 H   0  0  0  0  0  0  0  0  0  0  0  0
   -2.8638   -1.7941   -2.7539 H   0  0  0  0  0  0  0  0  0  0  0  0
   -2.2844   -0.7845   -0.0841 H   0  0  0  0  0  0  0  0  0  0  0  0
   -0.4419   -1.0119    0.5861 H   0  0  0  0  0  0  0  0  0  0  0  0
    1.8700   -1.2433    1.2377 H   0  0  0  0  0  0  0  0  0  0  0  0
    4.4582   -1.8109   -0.3516 H   0  0  0  0  0  0  0  0  0  0  0  0
    6.4598    2.0783    1.4068 H   0  0  0  0  0  0  0  0  0  0  0  0
    8.8521    1.4069    2.0367 H   0  0  0  0  0  0  0  0  0  0  0  0
    9.4410   -1.1455    1.5314 H   0  0  0  0  0  0  0  0  0  0  0  0
    3.1203   -0.1643   -2.6568 H   0  0  0  0  0  0  0  0  0  0  0  0
    0.7883    0.0853   -3.3712 H   0  0  0  0  0  0  0  0  0  0  0  0
   -4.8656    2.8797   -0.8493 H   0  0  0  0  0  0  0  0  0  0  0  0
   -6.9150    3.1151    0.4112 H   0  0  0  0  0  0  0  0  0  0  0  0
   -6.5598   -0.9440    1.7680 H   0  0  0  0  0  0  0  0  0  0  0  0
   -4.5175   -1.1559    0.5051 H   0  0  0  0  0  0  0  0  0  0  0  0
  1  2  1  0
  2  3  1  0
  3  4  1  0
  4  5  2  0
  5  6  1  0
  6  7  2  0
  7  8  1  0
  8  9  1  0
  9 10  2  0
  9 11  1  0
 11 12  2  0
 12 13  1  0
 13 14  2  0
 14 15  1  0
  7 16  1  0
 16 17  2  0
  2 18  1  0
 18 19  2  0
 18 20  1  0
 20 21  2  0
 21 22  1  0
 22 23  2  0
 23 24  1  0
 23 25  1  0
 25 26  2  0
 17  4  1  0
 15 11  1  0
 26 20  1  0
  1 27  1  0
  1 28  1  0
  1 29  1  0
  2 30  1  0
  5 31  1  0
  6 32  1  0
  8 33  1  0
 12 34  1  0
 13 35  1  0
 14 36  1  0
 16 37  1  0
 17 38  1  0
 21 39  1  0
 22 40  1  0
 25 41  1  0
 26 42  1  0
M  END
>  <Batch_No>  (330) 
OSSK_979724

>  <EC50_nM>  (330) 
1030

>  <Set>  (330) 
Probe-like

>  <Molecular_Weight>  (330) 
385.86393

>  <ALogP>  (330) 
4.956

$$$$
MMV396664
     RDKit          3D

 63 66  0  0  0  0  0  0  0  0999 V2000
   -3.1887    0.7238   -0.5287 C   0  0  0  0  0  0  0  0  0  0  0  0
   -3.0870    2.0552   -1.0877 C   0  0  0  0  0  0  0  0  0  0  0  0
   -4.1589    2.7411   -1.6181 O   0  0  0  0  0  0  0  0  0  0  0  0
   -3.9273    4.0495   -2.1391 C   0  0  0  0  0  0  0  0  0  0  0  0
   -3.3927    4.9546   -1.0444 C   0  0  0  0  0  0  0  0  0  0  0  0
   -1.9684    2.6267   -1.0960 O   0  0  0  0  0  0  0  0  0  0  0  0
   -2.1292    0.0219    0.0060 C   0  0  0  0  0  0  0  0  0  0  0  0
   -0.7822    0.2727    0.1868 C   0  0  0  0  0  0  0  0  0  0  0  0
    0.0333   -0.6732    0.7754 C   0  0  0  0  0  0  0  0  0  0  0  0
   -0.4424   -1.8953    1.2061 C   0  0  0  0  0  0  0  0  0  0  0  0
   -1.7923   -2.1462    1.0247 C   0  0  0  0  0  0  0  0  0  0  0  0
    1.3908   -0.3269    0.9168 O   0  0  0  0  0  0  0  0  0  0  0  0
    2.3128   -0.6161   -0.0781 C   0  0  0  0  0  0  0  0  0  0  0  0
    1.8710   -1.1995   -1.1036 O   0  0  0  0  0  0  0  0  0  0  0  0
    3.7260   -0.2733    0.0324 C   0  0  0  0  0  0  0  0  0  0  0  0
    4.5515   -0.6078   -1.0156 C   0  0  0  0  0  0  0  0  0  0  0  0
    5.8875   -0.2906   -0.9254 C   0  0  0  0  0  0  0  0  0  0  0  0
    6.7808   -0.5960   -1.9418 O   0  0  0  0  0  0  0  0  0  0  0  0
    6.2903   -1.2533   -3.1001 C   0  0  0  0  0  0  0  0  0  0  0  0
    4.1731    0.3654    1.1705 C   0  0  0  0  0  0  0  0  0  0  0  0
    5.5116    0.6860    1.2665 C   0  0  0  0  0  0  0  0  0  0  0  0
    6.0589    1.3235    2.3594 O   0  0  0  0  0  0  0  0  0  0  0  0
    5.2477    1.6868    3.4612 C   0  0  0  0  0  0  0  0  0  0  0  0
    6.3443    0.3519    0.2164 C   0  0  0  0  0  0  0  0  0  0  0  0
    7.6926    0.6582    0.2786 O   0  0  0  0  0  0  0  0  0  0  0  0
    8.1966    1.8878   -0.2003 C   0  0  0  0  0  0  0  0  0  0  0  0
   -2.6050   -1.2095    0.4408 C   0  0  0  0  0  0  0  0  0  0  0  0
   -3.9424   -1.2515    0.1709 N   0  0  0  0  0  0  0  0  0  0  0  0
   -4.7851   -2.3739    0.4790 C   0  0  0  0  0  0  0  0  0  0  0  0
   -5.2910   -2.5886    1.7442 C   0  0  0  0  0  0  0  0  0  0  0  0
   -6.0927   -3.6986    1.9378 C   0  0  0  0  0  0  0  0  0  0  0  0
   -6.3633   -4.5477    0.8871 C   0  0  0  0  0  0  0  0  0  0  0  0
   -5.8634   -4.3465   -0.3886 C   0  0  0  0  0  0  0  0  0  0  0  0
   -5.0634   -3.2341   -0.5708 C   0  0  0  0  0  0  0  0  0  0  0  0
   -4.2952   -0.0898   -0.4121 C   0  0  0  0  0  0  0  0  0  0  0  0
   -5.6756    0.2527   -0.8591 C   0  0  0  0  0  0  0  0  0  0  0  0
   -3.1541    4.0263   -2.9299 H   0  0  0  0  0  0  0  0  0  0  0  0
   -4.8353    4.4625   -2.5907 H   0  0  0  0  0  0  0  0  0  0  0  0
   -3.9482    5.9298   -1.0932 H   0  0  0  0  0  0  0  0  0  0  0  0
   -3.6478    4.5174   -0.0702 H   0  0  0  0  0  0  0  0  0  0  0  0
   -2.3191    5.1660   -1.1712 H   0  0  0  0  0  0  0  0  0  0  0  0
   -0.3572    1.2294   -0.1391 H   0  0  0  0  0  0  0  0  0  0  0  0
    0.2082   -2.6191    1.6622 H   0  0  0  0  0  0  0  0  0  0  0  0
   -2.1838   -3.0986    1.3559 H   0  0  0  0  0  0  0  0  0  0  0  0
    4.1684   -1.1091   -1.8951 H   0  0  0  0  0  0  0  0  0  0  0  0
    7.0525   -1.3137   -3.8900 H   0  0  0  0  0  0  0  0  0  0  0  0
    6.0653   -2.3075   -2.7724 H   0  0  0  0  0  0  0  0  0  0  0  0
    5.4164   -0.7122   -3.4663 H   0  0  0  0  0  0  0  0  0  0  0  0
    3.4997    0.6083    1.9631 H   0  0  0  0  0  0  0  0  0  0  0  0
    4.2660    2.0969    3.1290 H   0  0  0  0  0  0  0  0  0  0  0  0
    5.8358    2.4768    4.0024 H   0  0  0  0  0  0  0  0  0  0  0  0
    5.0901    0.8019    4.1034 H   0  0  0  0  0  0  0  0  0  0  0  0
    8.8098    1.6707   -1.0980 H   0  0  0  0  0  0  0  0  0  0  0  0
    7.3554    2.5621   -0.4393 H   0  0  0  0  0  0  0  0  0  0  0  0
    8.8040    2.3317    0.6231 H   0  0  0  0  0  0  0  0  0  0  0  0
   -5.0570   -1.9008    2.5435 H   0  0  0  0  0  0  0  0  0  0  0  0
   -6.4805   -3.8548    2.9272 H   0  0  0  0  0  0  0  0  0  0  0  0
   -6.9901   -5.4135    1.0437 H   0  0  0  0  0  0  0  0  0  0  0  0
   -6.0828   -5.0201   -1.2055 H   0  0  0  0  0  0  0  0  0  0  0  0
   -4.6594   -3.0583   -1.5711 H   0  0  0  0  0  0  0  0  0  0  0  0
   -6.1420    1.0052   -0.1872 H   0  0  0  0  0  0  0  0  0  0  0  0
   -5.6608    0.7477   -1.8659 H   0  0  0  0  0  0  0  0  0  0  0  0
   -6.2761   -0.6644   -0.9767 H   0  0  0  0  0  0  0  0  0  0  0  0
  1  2  1  0
  2  3  1  0
  3  4  1  0
  4  5  1  0
  2  6  2  0
  1  7  1  0
  7  8  2  0
  8  9  1  0
  9 10  2  0
 10 11  1  0
  9 12  1  0
 12 13  1  0
 13 14  2  0
 13 15  1  0
 15 16  2  0
 16 17  1  0
 17 18  1  0
 18 19  1  0
 15 20  1  0
 20 21  2  0
 21 22  1  0
 22 23  1  0
 21 24  1  0
 24 25  1  0
 25 26  1  0
  7 27  1  0
 27 28  1  0
 28 29  1  0
 29 30  2  0
 30 31  1  0
 31 32  2  0
 32 33  1  0
 33 34  2  0
 28 35  1  0
 35 36  1  0
 35  1  2  0
 27 11  2  0
 24 17  2  0
 34 29  1  0
  4 37  1  0
  4 38  1  0
  5 39  1  0
  5 40  1  0
  5 41  1  0
  8 42  1  0
 10 43  1  0
 11 44  1  0
 16 45  1  0
 19 46  1  0
 19 47  1  0
 19 48  1  0
 20 49  1  0
 23 50  1  0
 23 51  1  0
 23 52  1  0
 26 53  1  0
 26 54  1  0
 26 55  1  0
 30 56  1  0
 31 57  1  0
 32 58  1  0
 33 59  1  0
 34 60  1  0
 36 61  1  0
 36 62  1  0
 36 63  1  0
M  END
>  <Batch_No>  (331) 
F0016-1152

>  <EC50_nM>  (331) 
615

>  <Set>  (331) 
Probe-like

>  <Molecular_Weight>  (331) 
489.51647

>  <ALogP>  (331) 
5.638

$$$$
MMV001239
     RDKit          3D

 45 48  0  0  0  0  0  0  0  0999 V2000
    6.5393    0.7353    1.5651 C   0  0  0  0  0  0  0  0  0  0  0  0
    5.1965    0.4047    1.8610 O   0  0  0  0  0  0  0  0  0  0  0  0
    4.3118    0.3042    0.7853 C   0  0  0  0  0  0  0  0  0  0  0  0
    4.8039    0.5324   -0.4760 C   0  0  0  0  0  0  0  0  0  0  0  0
    3.9246    0.4287   -1.5272 C   0  0  0  0  0  0  0  0  0  0  0  0
    2.5511    0.0892   -1.2348 C   0  0  0  0  0  0  0  0  0  0  0  0
    1.1267   -0.1316   -2.3265 S   0  0  0  0  0  0  0  0  0  0  0  0
    0.0221   -0.5240   -0.7670 C   0  0  0  0  0  0  0  0  0  0  0  0
    0.7942   -0.4257    0.0545 N   0  0  0  0  0  0  0  0  0  0  0  0
    2.0823   -0.1370    0.0699 C   0  0  0  0  0  0  0  0  0  0  0  0
    3.0206   -0.0150    1.0680 C   0  0  0  0  0  0  0  0  0  0  0  0
   -1.2951   -0.7705   -1.2984 N   0  0  0  0  0  0  0  0  0  0  0  0
   -1.5549   -2.1501   -1.7352 C   0  0  0  0  0  0  0  0  0  0  0  0
   -2.1683   -2.9290   -0.6043 C   0  0  0  0  0  0  0  0  0  0  0  0
   -1.3854   -3.5850    0.3305 C   0  0  0  0  0  0  0  0  0  0  0  0
   -1.9957   -4.2752    1.3474 C   0  0  0  0  0  0  0  0  0  0  0  0
   -3.3594   -4.3669    1.5123 C   0  0  0  0  0  0  0  0  0  0  0  0
   -4.1078   -3.7115    0.5766 N   0  0  0  0  0  0  0  0  0  0  0  0
   -3.5338   -3.0234   -0.4367 C   0  0  0  0  0  0  0  0  0  0  0  0
   -2.3007    0.2018   -1.4042 C   0  0  0  0  0  0  0  0  0  0  0  0
   -3.3649   -0.1384   -2.0427 O   0  0  0  0  0  0  0  0  0  0  0  0
   -2.2971    1.5414   -0.8808 C   0  0  0  0  0  0  0  0  0  0  0  0
   -3.5263    2.0223   -0.4089 C   0  0  0  0  0  0  0  0  0  0  0  0
   -3.6799    3.2764    0.1251 C   0  0  0  0  0  0  0  0  0  0  0  0
   -2.5912    4.1098    0.2074 C   0  0  0  0  0  0  0  0  0  0  0  0
   -1.3480    3.6796   -0.2474 C   0  0  0  0  0  0  0  0  0  0  0  0
   -1.2397    2.3910   -0.7844 C   0  0  0  0  0  0  0  0  0  0  0  0
   -2.7691    5.4319    0.7745 C   0  0  0  0  0  0  0  0  0  0  0  0
   -2.8936    6.4949    1.2274 N   0  0  0  0  0  0  0  0  0  0  0  0
    6.5264    1.7815    1.1332 H   0  0  0  0  0  0  0  0  0  0  0  0
    7.1828    0.7346    2.4675 H   0  0  0  0  0  0  0  0  0  0  0  0
    6.9048    0.0035    0.8020 H   0  0  0  0  0  0  0  0  0  0  0  0
    5.8192    0.7886   -0.7122 H   0  0  0  0  0  0  0  0  0  0  0  0
    4.1779    0.5802   -2.5611 H   0  0  0  0  0  0  0  0  0  0  0  0
    2.7281   -0.1758    2.1146 H   0  0  0  0  0  0  0  0  0  0  0  0
   -2.1785   -2.2025   -2.6367 H   0  0  0  0  0  0  0  0  0  0  0  0
   -0.5716   -2.6345   -1.9557 H   0  0  0  0  0  0  0  0  0  0  0  0
   -0.3180   -3.5613    0.2692 H   0  0  0  0  0  0  0  0  0  0  0  0
   -1.4000   -4.8067    2.1092 H   0  0  0  0  0  0  0  0  0  0  0  0
   -3.8296   -4.9118    2.3168 H   0  0  0  0  0  0  0  0  0  0  0  0
   -4.2149   -2.5450   -1.1197 H   0  0  0  0  0  0  0  0  0  0  0  0
   -4.4070    1.3942   -0.4596 H   0  0  0  0  0  0  0  0  0  0  0  0
   -4.6226    3.6423    0.4868 H   0  0  0  0  0  0  0  0  0  0  0  0
   -0.4907    4.3411   -0.1792 H   0  0  0  0  0  0  0  0  0  0  0  0
   -0.2687    2.1109   -1.1163 H   0  0  0  0  0  0  0  0  0  0  0  0
  1  2  1  0
  2  3  1  0
  3  4  2  0
  4  5  1  0
  5  6  2  0
  6  7  1  0
  7  8  1  0
  8  9  2  0
  9 10  1  0
 10 11  2  0
  8 12  1  0
 12 13  1  0
 13 14  1  0
 14 15  2  0
 15 16  1  0
 16 17  2  0
 17 18  1  0
 18 19  2  0
 12 20  1  0
 20 21  2  0
 20 22  1  0
 22 23  2  0
 23 24  1  0
 24 25  2  0
 25 26  1  0
 26 27  2  0
 25 28  1  0
 28 29  3  0
 11  3  1  0
 10  6  1  0
 19 14  1  0
 27 22  1  0
  1 30  1  0
  1 31  1  0
  1 32  1  0
  4 33  1  0
  5 34  1  0
 11 35  1  0
 13 36  1  0
 13 37  1  0
 15 38  1  0
 16 39  1  0
 17 40  1  0
 19 41  1  0
 23 42  1  0
 24 43  1  0
 26 44  1  0
 27 45  1  0
M  END
>  <Batch_No>  (332) 
G856-7029

>  <EC50_nM>  (332) 
nan

>  <Set>  (332) 
Probe-like

>  <Molecular_Weight>  (332) 
400.45

>  <ALogP>  (332) 
3.741

$$$$
MMV667491
     RDKit          3D

 61 65  0  0  0  0  0  0  0  0999 V2000
   -0.0873   -0.9713   -0.5074 C   0  0  0  0  0  0  0  0  0  0  0  0
    0.0450   -2.2431    0.0227 C   0  0  0  0  0  0  0  0  0  0  0  0
    1.2407   -2.7164    0.4417 N   0  0  0  0  0  0  0  0  0  0  0  0
    2.3292   -1.9330    0.3409 C   0  0  0  0  0  0  0  0  0  0  0  0
    2.2377   -0.6720   -0.1771 N   0  0  0  0  0  0  0  0  0  0  0  0
    3.4810    0.1208   -0.2615 C   0  0  0  0  0  0  0  0  0  0  0  0
    3.7019    0.9178    0.9712 C   0  0  0  0  0  0  0  0  0  0  0  0
    4.9405    1.7280    0.9154 C   0  0  0  0  0  0  0  0  0  0  0  0
    6.1924    1.0663    0.7671 N   0  0  0  0  0  0  0  0  0  0  0  0
    7.2073    2.1468    0.9507 C   0  0  0  0  0  0  0  0  0  0  0  0
    6.4664    0.5823   -0.5774 C   0  0  0  0  0  0  0  0  0  0  0  0
    1.0596   -0.1697   -0.6037 C   0  0  0  0  0  0  0  0  0  0  0  0
    0.8941    0.9878   -1.0879 N   0  0  0  0  0  0  0  0  0  0  0  0
   -1.0339   -3.1024    0.1522 O   0  0  0  0  0  0  0  0  0  0  0  0
   -2.2915   -2.7009   -0.2539 C   0  0  0  0  0  0  0  0  0  0  0  0
   -2.4558   -1.4536   -0.7809 C   0  0  0  0  0  0  0  0  0  0  0  0
   -3.7551   -1.1133   -1.1723 C   0  0  0  0  0  0  0  0  0  0  0  0
   -4.7876   -2.0262   -1.0139 C   0  0  0  0  0  0  0  0  0  0  0  0
   -4.5993   -3.2824   -0.4781 C   0  0  0  0  0  0  0  0  0  0  0  0
   -5.6193   -4.1963   -0.3153 C   0  0  0  0  0  0  0  0  0  0  0  0
   -5.3756   -5.4270    0.2233 C   0  0  0  0  0  0  0  0  0  0  0  0
   -4.1071   -5.7888    0.6175 C   0  0  0  0  0  0  0  0  0  0  0  0
   -3.0778   -4.8737    0.4555 C   0  0  0  0  0  0  0  0  0  0  0  0
   -3.3177   -3.6184   -0.0919 C   0  0  0  0  0  0  0  0  0  0  0  0
   -1.3941   -0.4530   -0.9646 C   0  0  0  0  0  0  0  0  0  0  0  0
   -1.7701    0.8417   -0.3284 C   0  0  0  0  0  0  0  0  0  0  0  0
   -2.4013    1.8239   -1.1000 C   0  0  0  0  0  0  0  0  0  0  0  0
   -2.7793    3.0401   -0.5484 C   0  0  0  0  0  0  0  0  0  0  0  0
   -2.5403    3.3180    0.7934 C   0  0  0  0  0  0  0  0  0  0  0  0
   -2.9041    4.5142    1.3722 O   0  0  0  0  0  0  0  0  0  0  0  0
   -3.5417    5.5707    0.7032 C   0  0  0  0  0  0  0  0  0  0  0  0
   -1.9185    2.3494    1.5499 C   0  0  0  0  0  0  0  0  0  0  0  0
   -1.5337    1.1204    1.0017 C   0  0  0  0  0  0  0  0  0  0  0  0
    3.2757   -2.3374    0.6838 H   0  0  0  0  0  0  0  0  0  0  0  0
    3.4313    0.7728   -1.1385 H   0  0  0  0  0  0  0  0  0  0  0  0
    4.3129   -0.6314   -0.3073 H   0  0  0  0  0  0  0  0  0  0  0  0
    3.6252    0.2935    1.9002 H   0  0  0  0  0  0  0  0  0  0  0  0
    2.8578    1.6654    1.1172 H   0  0  0  0  0  0  0  0  0  0  0  0
    4.8473    2.4317    0.0485 H   0  0  0  0  0  0  0  0  0  0  0  0
    4.9776    2.4297    1.8111 H   0  0  0  0  0  0  0  0  0  0  0  0
    8.2279    1.7035    1.0136 H   0  0  0  0  0  0  0  0  0  0  0  0
    6.9383    2.7732    1.7998 H   0  0  0  0  0  0  0  0  0  0  0  0
    7.1724    2.7262    0.0056 H   0  0  0  0  0  0  0  0  0  0  0  0
    6.6253   -0.5173   -0.5781 H   0  0  0  0  0  0  0  0  0  0  0  0
    5.7571    0.9478   -1.3362 H   0  0  0  0  0  0  0  0  0  0  0  0
    7.4705    0.9698   -0.9619 H   0  0  0  0  0  0  0  0  0  0  0  0
    1.6544    1.6683   -1.2106 H   0  0  0  0  0  0  0  0  0  0  0  0
   -4.0129   -0.1705   -1.5989 H   0  0  0  0  0  0  0  0  0  0  0  0
   -5.7900   -1.7576   -1.3194 H   0  0  0  0  0  0  0  0  0  0  0  0
   -6.6366   -3.9157   -0.6284 H   0  0  0  0  0  0  0  0  0  0  0  0
   -6.1676   -6.1685    0.3620 H   0  0  0  0  0  0  0  0  0  0  0  0
   -3.8687   -6.7529    1.0497 H   0  0  0  0  0  0  0  0  0  0  0  0
   -2.0723   -5.1759    0.7749 H   0  0  0  0  0  0  0  0  0  0  0  0
   -1.2652   -0.2476   -2.0655 H   0  0  0  0  0  0  0  0  0  0  0  0
   -2.6167    1.6791   -2.1510 H   0  0  0  0  0  0  0  0  0  0  0  0
   -3.2677    3.7754   -1.1897 H   0  0  0  0  0  0  0  0  0  0  0  0
   -2.7744    6.2767    0.3656 H   0  0  0  0  0  0  0  0  0  0  0  0
   -4.2353    6.0575    1.4406 H   0  0  0  0  0  0  0  0  0  0  0  0
   -4.2089    5.2292   -0.1267 H   0  0  0  0  0  0  0  0  0  0  0  0
   -1.7117    2.5223    2.6015 H   0  0  0  0  0  0  0  0  0  0  0  0
   -1.0502    0.3661    1.5875 H   0  0  0  0  0  0  0  0  0  0  0  0
  1  2  2  0
  2  3  1  0
  3  4  2  0
  4  5  1  0
  5  6  1  0
  6  7  1  0
  7  8  1  0
  8  9  1  0
  9 10  1  0
  9 11  1  0
  5 12  1  0
 12 13  2  3
  2 14  1  0
 14 15  1  0
 15 16  2  0
 16 17  1  0
 17 18  2  0
 18 19  1  0
 19 20  1  0
 20 21  2  0
 21 22  1  0
 22 23  2  0
 19 24  2  0
 16 25  1  0
 25 26  1  0
 26 27  2  0
 27 28  1  0
 28 29  2  0
 29 30  1  0
 30 31  1  0
 29 32  1  0
 32 33  2  0
 12  1  1  0
 25  1  1  0
 24 15  1  0
 24 23  1  0
 33 26  1  0
  4 34  1  0
  6 35  1  0
  6 36  1  0
  7 37  1  0
  7 38  1  0
  8 39  1  0
  8 40  1  0
 10 41  1  0
 10 42  1  0
 10 43  1  0
 11 44  1  0
 11 45  1  0
 11 46  1  0
 13 47  1  0
 17 48  1  0
 18 49  1  0
 20 50  1  0
 21 51  1  0
 22 52  1  0
 23 53  1  0
 25 54  1  0
 27 55  1  0
 28 56  1  0
 31 57  1  0
 31 58  1  0
 31 59  1  0
 32 60  1  0
 33 61  1  0
M  END
>  <Batch_No>  (333) 
STK586450

>  <EC50_nM>  (333) 
1230

>  <Set>  (333) 
Probe-like

>  <Molecular_Weight>  (333) 
440.53681

>  <ALogP>  (333) 
4.158

$$$$
MMV006169
     RDKit          3D

 43 46  0  0  0  0  0  0  0  0999 V2000
   -2.9651    0.4075   -1.1873 C   0  0  0  0  0  0  0  0  0  0  0  0
   -1.7108    0.5158   -0.6584 N   0  0  0  0  0  0  0  0  0  0  0  0
   -0.4511    0.6219   -0.1274 C   0  0  0  0  0  0  0  0  0  0  0  0
    0.4658   -0.2819    0.1911 N   0  0  0  0  0  0  0  0  0  0  0  0
    1.6807   -0.0548    0.7125 C   0  0  0  0  0  0  0  0  0  0  0  0
    2.6132   -1.0766    1.0216 N   0  0  0  0  0  0  0  0  0  0  0  0
    3.6465   -1.4658    0.1433 C   0  0  0  0  0  0  0  0  0  0  0  0
    3.8371   -0.8678   -1.0658 C   0  0  0  0  0  0  0  0  0  0  0  0
    4.8824   -1.2830   -1.8995 C   0  0  0  0  0  0  0  0  0  0  0  0
    5.7169   -2.3127   -1.4694 C   0  0  0  0  0  0  0  0  0  0  0  0
    5.5438   -2.9350   -0.2493 C   0  0  0  0  0  0  0  0  0  0  0  0
    4.5035   -2.4932    0.5358 C   0  0  0  0  0  0  0  0  0  0  0  0
    2.0070    1.2283    0.9382 N   0  0  0  0  0  0  0  0  0  0  0  0
    1.1896    2.2444    0.6684 C   0  0  0  0  0  0  0  0  0  0  0  0
    1.6306    3.5172    0.9427 C   0  0  0  0  0  0  0  0  0  0  0  0
    0.8067    4.5685    0.6745 C   0  0  0  0  0  0  0  0  0  0  0  0
   -0.4504    4.3017    0.1305 C   0  0  0  0  0  0  0  0  0  0  0  0
   -0.8781    3.0171   -0.1390 C   0  0  0  0  0  0  0  0  0  0  0  0
   -0.0371    1.9676    0.1380 C   0  0  0  0  0  0  0  0  0  0  0  0
   -3.8607   -0.4456   -0.3268 C   0  0  0  0  0  0  0  0  0  0  0  0
   -3.8855   -1.7984   -0.5956 C   0  0  0  0  0  0  0  0  0  0  0  0
   -4.6517   -2.6782    0.1422 C   0  0  0  0  0  0  0  0  0  0  0  0
   -5.3957   -2.1199    1.1721 C   0  0  0  0  0  0  0  0  0  0  0  0
   -5.3906   -0.7742    1.4634 C   0  0  0  0  0  0  0  0  0  0  0  0
   -4.6032    0.1045    0.6983 C   0  0  0  0  0  0  0  0  0  0  0  0
   -3.0388   -0.0614   -2.2232 H   0  0  0  0  0  0  0  0  0  0  0  0
   -3.5583    1.3874   -1.2409 H   0  0  0  0  0  0  0  0  0  0  0  0
   -1.5789   -0.8195   -0.7195 H   0  0  0  0  0  0  0  0  0  0  0  0
    2.4855   -1.5405    1.9703 H   0  0  0  0  0  0  0  0  0  0  0  0
    3.1848   -0.0828   -1.3750 H   0  0  0  0  0  0  0  0  0  0  0  0
    4.9912   -0.7803   -2.8378 H   0  0  0  0  0  0  0  0  0  0  0  0
    6.5188   -2.6021   -2.1529 H   0  0  0  0  0  0  0  0  0  0  0  0
    6.2206   -3.7295    0.0358 H   0  0  0  0  0  0  0  0  0  0  0  0
    4.3360   -2.9528    1.4941 H   0  0  0  0  0  0  0  0  0  0  0  0
    2.6270    3.6614    1.3697 H   0  0  0  0  0  0  0  0  0  0  0  0
    1.0947    5.6121    0.8721 H   0  0  0  0  0  0  0  0  0  0  0  0
   -1.0736    5.1584   -0.0738 H   0  0  0  0  0  0  0  0  0  0  0  0
   -1.8288    2.8024   -0.5546 H   0  0  0  0  0  0  0  0  0  0  0  0
   -3.2927   -2.1921   -1.4059 H   0  0  0  0  0  0  0  0  0  0  0  0
   -4.7116   -3.7272   -0.0158 H   0  0  0  0  0  0  0  0  0  0  0  0
   -6.0250   -2.7834    1.7893 H   0  0  0  0  0  0  0  0  0  0  0  0
   -5.9985   -0.4283    2.2846 H   0  0  0  0  0  0  0  0  0  0  0  0
   -4.5964    1.1707    0.9293 H   0  0  0  0  0  0  0  0  0  0  0  0
  1  2  1  0
  2  3  1  0
  3  4  2  0
  4  5  1  0
  5  6  1  0
  6  7  1  0
  7  8  2  0
  8  9  1  0
  9 10  2  0
 10 11  1  0
 11 12  2  0
  5 13  2  0
 13 14  1  0
 14 15  2  0
 15 16  1  0
 16 17  2  0
 17 18  1  0
 18 19  2  0
  1 20  1  0
 20 21  2  0
 21 22  1  0
 22 23  2  0
 23 24  1  0
 24 25  2  0
 19  3  1  0
 12  7  1  0
 19 14  1  0
 25 20  1  0
  1 26  1  0
  1 27  1  0
  2 28  1  0
  6 29  1  0
  8 30  1  0
  9 31  1  0
 10 32  1  0
 11 33  1  0
 12 34  1  0
 15 35  1  0
 16 36  1  0
 17 37  1  0
 18 38  1  0
 21 39  1  0
 22 40  1  0
 23 41  1  0
 24 42  1  0
 25 43  1  0
M  END
>  <Batch_No>  (334) 
STK843428

>  <EC50_nM>  (334) 
776

>  <Set>  (334) 
Probe-like

>  <Molecular_Weight>  (334) 
326.39442

>  <ALogP>  (334) 
4.281

$$$$
MMV086103
     RDKit          3D

 41 44  0  0  0  0  0  0  0  0999 V2000
   -6.3461    0.0826   -0.5731 C   0  0  0  0  0  0  0  0  0  0  0  0
   -5.0428    0.4084    0.0626 C   0  0  0  0  0  0  0  0  0  0  0  0
   -4.9415    1.3089    1.1061 C   0  0  0  0  0  0  0  0  0  0  0  0
   -3.7028    1.5698    1.6535 C   0  0  0  0  0  0  0  0  0  0  0  0
   -3.5739    2.3928    2.6150 O   0  0  0  0  0  0  0  0  0  0  0  0
   -2.6312    0.9931    1.2154 O   0  0  0  0  0  0  0  0  0  0  0  0
   -2.6570    0.1302    0.2298 C   0  0  0  0  0  0  0  0  0  0  0  0
   -3.8689   -0.1964   -0.3867 C   0  0  0  0  0  0  0  0  0  0  0  0
   -3.8745   -1.1086   -1.4243 C   0  0  0  0  0  0  0  0  0  0  0  0
   -2.7046   -1.6990   -1.8581 C   0  0  0  0  0  0  0  0  0  0  0  0
   -1.5161   -1.3599   -1.2322 C   0  0  0  0  0  0  0  0  0  0  0  0
   -0.3006   -1.7708   -1.4539 O   0  0  0  0  0  0  0  0  0  0  0  0
    0.5764   -1.2074   -0.6372 C   0  0  0  0  0  0  0  0  0  0  0  0
    1.9843   -1.5189   -0.7028 C   0  0  0  0  0  0  0  0  0  0  0  0
    2.2838   -2.6229   -1.2887 O   0  0  0  0  0  0  0  0  0  0  0  0
    3.0883   -0.7556   -0.1997 C   0  0  0  0  0  0  0  0  0  0  0  0
    4.1949   -1.4585    0.2688 C   0  0  0  0  0  0  0  0  0  0  0  0
    5.3286   -0.8335    0.7408 C   0  0  0  0  0  0  0  0  0  0  0  0
    5.4195    0.5597    0.7707 C   0  0  0  0  0  0  0  0  0  0  0  0
    6.6035    1.2780    1.2634 C   0  0  0  0  0  0  0  0  0  0  0  0
    4.3097    1.2670    0.3004 C   0  0  0  0  0  0  0  0  0  0  0  0
    3.1840    0.6141   -0.1684 C   0  0  0  0  0  0  0  0  0  0  0  0
   -0.1473   -0.3780    0.1614 C   0  0  0  0  0  0  0  0  0  0  0  0
    0.3232    0.4735    1.2788 C   0  0  0  0  0  0  0  0  0  0  0  0
   -1.4900   -0.4510   -0.1941 C   0  0  0  0  0  0  0  0  0  0  0  0
   -7.1151    0.7270   -0.0914 H   0  0  0  0  0  0  0  0  0  0  0  0
   -6.4036    0.3013   -1.6389 H   0  0  0  0  0  0  0  0  0  0  0  0
   -6.6697   -0.9644   -0.3230 H   0  0  0  0  0  0  0  0  0  0  0  0
   -5.8202    1.8067    1.4942 H   0  0  0  0  0  0  0  0  0  0  0  0
   -4.8459   -1.3332   -1.8761 H   0  0  0  0  0  0  0  0  0  0  0  0
   -2.7602   -2.4083   -2.6757 H   0  0  0  0  0  0  0  0  0  0  0  0
    4.2127   -2.5512    0.2829 H   0  0  0  0  0  0  0  0  0  0  0  0
    6.1907   -1.3671    1.1056 H   0  0  0  0  0  0  0  0  0  0  0  0
    7.0871    0.6663    2.0734 H   0  0  0  0  0  0  0  0  0  0  0  0
    7.3614    1.4524    0.4878 H   0  0  0  0  0  0  0  0  0  0  0  0
    6.3531    2.2443    1.7374 H   0  0  0  0  0  0  0  0  0  0  0  0
    4.3166    2.3685    0.2963 H   0  0  0  0  0  0  0  0  0  0  0  0
    2.3702    1.2179   -0.5342 H   0  0  0  0  0  0  0  0  0  0  0  0
   -0.4966    0.6103    2.0477 H   0  0  0  0  0  0  0  0  0  0  0  0
    1.1935    0.0135    1.7878 H   0  0  0  0  0  0  0  0  0  0  0  0
    0.5271    1.4983    0.9158 H   0  0  0  0  0  0  0  0  0  0  0  0
  1  2  1  0
  2  3  2  0
  3  4  1  0
  4  5  2  0
  4  6  1  0
  6  7  1  0
  7  8  2  0
  8  9  1  0
  9 10  2  0
 10 11  1  0
 11 12  1  0
 12 13  1  0
 13 14  1  0
 14 15  2  0
 14 16  1  0
 16 17  2  0
 17 18  1  0
 18 19  2  0
 19 20  1  0
 19 21  1  0
 21 22  2  0
 13 23  2  0
 23 24  1  0
 23 25  1  0
  8  2  1  0
 25  7  1  0
 25 11  2  0
 22 16  1  0
  1 26  1  0
  1 27  1  0
  1 28  1  0
  3 29  1  0
  9 30  1  0
 10 31  1  0
 17 32  1  0
 18 33  1  0
 20 34  1  0
 20 35  1  0
 20 36  1  0
 21 37  1  0
 22 38  1  0
 24 39  1  0
 24 40  1  0
 24 41  1  0
M  END
>  <Batch_No>  (335) 
STK617620

>  <EC50_nM>  (335) 
906

>  <Set>  (335) 
Probe-like

>  <Molecular_Weight>  (335) 
332.34934

>  <ALogP>  (335) 
5.317

$$$$
MMV084434
     RDKit          3D

 40 42  0  0  0  0  0  0  0  0999 V2000
   -6.5238   -0.5831    1.4099 C   0  0  0  0  0  0  0  0  0  0  0  0
   -5.9413   -1.5474    0.5618 O   0  0  0  0  0  0  0  0  0  0  0  0
   -4.7370   -1.2412   -0.0538 C   0  0  0  0  0  0  0  0  0  0  0  0
   -4.1382   -2.1604   -0.8905 C   0  0  0  0  0  0  0  0  0  0  0  0
   -2.9353   -1.8587   -1.5062 C   0  0  0  0  0  0  0  0  0  0  0  0
   -2.3018   -0.6272   -1.2982 C   0  0  0  0  0  0  0  0  0  0  0  0
   -1.0842   -0.3866   -2.0059 C   0  0  0  0  0  0  0  0  0  0  0  0
    0.0961   -0.0861   -1.5212 C   0  0  0  0  0  0  0  0  0  0  0  0
    1.5840    0.2087   -2.5421 S   0  0  0  0  0  0  0  0  0  0  0  0
    2.6290    0.4772   -1.1129 C   0  0  0  0  0  0  0  0  0  0  0  0
    1.9428    0.3500   -0.0734 N   0  0  0  0  0  0  0  0  0  0  0  0
    0.5923    0.0499   -0.1615 C   0  0  0  0  0  0  0  0  0  0  0  0
   -0.1386   -0.0944    0.8883 O   0  0  0  0  0  0  0  0  0  0  0  0
    4.0132    0.7868   -1.1518 N   0  0  0  0  0  0  0  0  0  0  0  0
    4.9523    0.2648   -0.2257 C   0  0  0  0  0  0  0  0  0  0  0  0
    6.2979    0.6376   -0.3005 C   0  0  0  0  0  0  0  0  0  0  0  0
    7.2406    0.1461    0.5813 C   0  0  0  0  0  0  0  0  0  0  0  0
    6.8788   -0.7348    1.5702 C   0  0  0  0  0  0  0  0  0  0  0  0
    7.8047   -1.2217    2.4423 F   0  0  0  0  0  0  0  0  0  0  0  0
    5.5665   -1.1205    1.6706 C   0  0  0  0  0  0  0  0  0  0  0  0
    4.6348   -0.6189    0.7793 C   0  0  0  0  0  0  0  0  0  0  0  0
   -2.9036    0.2838   -0.4655 C   0  0  0  0  0  0  0  0  0  0  0  0
   -2.3639    1.5153   -0.2067 O   0  0  0  0  0  0  0  0  0  0  0  0
   -2.9719    2.4599    0.6467 C   0  0  0  0  0  0  0  0  0  0  0  0
   -4.1098   -0.0301    0.1468 C   0  0  0  0  0  0  0  0  0  0  0  0
   -5.8469   -0.2905    2.2502 H   0  0  0  0  0  0  0  0  0  0  0  0
   -7.4646   -0.9905    1.8406 H   0  0  0  0  0  0  0  0  0  0  0  0
   -6.7081    0.3704    0.8408 H   0  0  0  0  0  0  0  0  0  0  0  0
   -4.6203   -3.1336   -1.0668 H   0  0  0  0  0  0  0  0  0  0  0  0
   -2.4953   -2.6141   -2.1607 H   0  0  0  0  0  0  0  0  0  0  0  0
   -1.1484   -0.4653   -3.1119 H   0  0  0  0  0  0  0  0  0  0  0  0
    4.3747    1.4382   -1.9074 H   0  0  0  0  0  0  0  0  0  0  0  0
    6.6119    1.3335   -1.0743 H   0  0  0  0  0  0  0  0  0  0  0  0
    8.2829    0.4442    0.5115 H   0  0  0  0  0  0  0  0  0  0  0  0
    5.3164   -1.8163    2.4623 H   0  0  0  0  0  0  0  0  0  0  0  0
    3.6197   -0.9606    0.9069 H   0  0  0  0  0  0  0  0  0  0  0  0
   -3.0285    2.0438    1.6723 H   0  0  0  0  0  0  0  0  0  0  0  0
   -2.3796    3.3991    0.6132 H   0  0  0  0  0  0  0  0  0  0  0  0
   -4.0085    2.6068    0.2270 H   0  0  0  0  0  0  0  0  0  0  0  0
   -4.5890    0.7025    0.8149 H   0  0  0  0  0  0  0  0  0  0  0  0
  1  2  1  0
  2  3  1  0
  3  4  2  0
  4  5  1  0
  5  6  2  0
  6  7  1  0
  7  8  2  3
  8  9  1  0
  9 10  1  0
 10 11  2  0
 11 12  1  0
 12 13  2  0
 10 14  1  0
 14 15  1  0
 15 16  2  0
 16 17  1  0
 17 18  2  0
 18 19  1  0
 18 20  1  0
 20 21  2  0
  6 22  1  0
 22 23  1  0
 23 24  1  0
 22 25  2  0
 25  3  1  0
 12  8  1  0
 21 15  1  0
  1 26  1  0
  1 27  1  0
  1 28  1  0
  4 29  1  0
  5 30  1  0
  7 31  1  0
 14 32  1  0
 16 33  1  0
 17 34  1  0
 20 35  1  0
 21 36  1  0
 24 37  1  0
 24 38  1  0
 24 39  1  0
 25 40  1  0
M  END
>  <Batch_No>  (336) 
STK836693

>  <EC50_nM>  (336) 
591

>  <Set>  (336) 
Probe-like

>  <Molecular_Weight>  (336) 
358.3867

>  <ALogP>  (336) 
3.952

$$$$
MMV666692
     RDKit          3D

 56 59  0  0  0  0  0  0  0  0999 V2000
   -6.8577    0.4193    3.5852 C   0  0  0  0  0  0  0  0  0  0  0  0
   -6.9548    0.1168    2.1037 C   0  0  0  0  0  0  0  0  0  0  0  0
   -5.9652    1.0128    1.3979 C   0  0  0  0  0  0  0  0  0  0  0  0
   -4.5739    0.7023    1.9346 C   0  0  0  0  0  0  0  0  0  0  0  0
   -3.5227    1.5088    1.2766 C   0  0  0  0  0  0  0  0  0  0  0  0
   -3.3613    1.2186   -0.1782 C   0  0  0  0  0  0  0  0  0  0  0  0
   -2.8752   -0.1449   -0.4321 C   0  0  0  0  0  0  0  0  0  0  0  0
   -1.4737   -0.2801   -0.5190 C   0  0  0  0  0  0  0  0  0  0  0  0
   -0.8609   -1.4888   -0.7067 C   0  0  0  0  0  0  0  0  0  0  0  0
    0.5204   -1.5154   -0.7769 C   0  0  0  0  0  0  0  0  0  0  0  0
    1.1874   -2.7380   -0.9679 C   0  0  0  0  0  0  0  0  0  0  0  0
    0.3829   -3.8361   -1.0716 C   0  0  0  0  0  0  0  0  0  0  0  0
    0.8590   -4.9642   -1.2409 O   0  0  0  0  0  0  0  0  0  0  0  0
   -0.9463   -3.7654   -0.9980 O   0  0  0  0  0  0  0  0  0  0  0  0
   -1.5924   -2.6448   -0.8211 C   0  0  0  0  0  0  0  0  0  0  0  0
   -2.9609   -2.5391   -0.7404 C   0  0  0  0  0  0  0  0  0  0  0  0
   -3.5860   -1.2943   -0.5481 C   0  0  0  0  0  0  0  0  0  0  0  0
   -4.9587   -1.3303   -0.4922 O   0  0  0  0  0  0  0  0  0  0  0  0
    2.6184   -2.7147   -1.0206 C   0  0  0  0  0  0  0  0  0  0  0  0
    3.4813   -3.9006   -1.2848 C   0  0  0  0  0  0  0  0  0  0  0  0
    5.0872   -3.3727   -1.2518 S   0  0  0  0  0  0  0  0  0  0  0  0
    4.5758   -1.5524   -0.8809 C   0  0  0  0  0  0  0  0  0  0  0  0
    5.6171   -0.5635   -0.7326 C   0  0  0  0  0  0  0  0  0  0  0  0
    5.3423    0.6993   -0.4770 C   0  0  0  0  0  0  0  0  0  0  0  0
    6.3425    1.7418   -0.3164 C   0  0  0  0  0  0  0  0  0  0  0  0
    7.6973    1.5301   -0.4086 C   0  0  0  0  0  0  0  0  0  0  0  0
    8.6070    2.5511   -0.2492 C   0  0  0  0  0  0  0  0  0  0  0  0
    8.2078    3.8544    0.0139 C   0  0  0  0  0  0  0  0  0  0  0  0
    6.8422    4.0597    0.1056 C   0  0  0  0  0  0  0  0  0  0  0  0
    5.9239    3.0271   -0.0557 C   0  0  0  0  0  0  0  0  0  0  0  0
    3.3904   -1.6749   -0.8542 N   0  0  0  0  0  0  0  0  0  0  0  0
   -7.8211    0.1195    4.0831 H   0  0  0  0  0  0  0  0  0  0  0  0
   -6.0467   -0.2312    3.9833 H   0  0  0  0  0  0  0  0  0  0  0  0
   -6.5794    1.4679    3.7758 H   0  0  0  0  0  0  0  0  0  0  0  0
   -6.6317   -0.9250    1.9201 H   0  0  0  0  0  0  0  0  0  0  0  0
   -7.9866    0.2820    1.7287 H   0  0  0  0  0  0  0  0  0  0  0  0
   -6.1350    2.0897    1.7012 H   0  0  0  0  0  0  0  0  0  0  0  0
   -5.9777    0.9397    0.3256 H   0  0  0  0  0  0  0  0  0  0  0  0
   -4.3568   -0.3797    1.9220 H   0  0  0  0  0  0  0  0  0  0  0  0
   -4.6565    0.9980    3.0379 H   0  0  0  0  0  0  0  0  0  0  0  0
   -3.6687    2.6189    1.4527 H   0  0  0  0  0  0  0  0  0  0  0  0
   -2.5366    1.2141    1.7629 H   0  0  0  0  0  0  0  0  0  0  0  0
   -4.3180    1.4198   -0.7428 H   0  0  0  0  0  0  0  0  0  0  0  0
   -2.5954    1.9458   -0.5771 H   0  0  0  0  0  0  0  0  0  0  0  0
   -0.8355    0.6138   -0.4342 H   0  0  0  0  0  0  0  0  0  0  0  0
    1.1019   -0.6097   -0.6881 H   0  0  0  0  0  0  0  0  0  0  0  0
   -3.5346   -3.4349   -0.8293 H   0  0  0  0  0  0  0  0  0  0  0  0
   -5.5898   -1.3209   -1.2760 H   0  0  0  0  0  0  0  0  0  0  0  0
    2.9958   -4.9463   -1.4668 H   0  0  0  0  0  0  0  0  0  0  0  0
    6.6625   -0.8219   -0.8256 H   0  0  0  0  0  0  0  0  0  0  0  0
    4.2941    0.9591   -0.3840 H   0  0  0  0  0  0  0  0  0  0  0  0
    8.0965    0.5507   -0.6107 H   0  0  0  0  0  0  0  0  0  0  0  0
    9.6878    2.3639   -0.3260 H   0  0  0  0  0  0  0  0  0  0  0  0
    8.8905    4.6731    0.1433 H   0  0  0  0  0  0  0  0  0  0  0  0
    6.4618    5.0587    0.3113 H   0  0  0  0  0  0  0  0  0  0  0  0
    4.8859    3.2330    0.0220 H   0  0  0  0  0  0  0  0  0  0  0  0
  1  2  1  0
  2  3  1  0
  3  4  1  0
  4  5  1  0
  5  6  1  0
  6  7  1  0
  7  8  2  0
  8  9  1  0
  9 10  1  0
 10 11  2  0
 11 12  1  0
 12 13  2  0
 12 14  1  0
 14 15  1  0
 15 16  1  0
 16 17  2  0
 17 18  1  0
 11 19  1  0
 19 20  2  0
 20 21  1  0
 21 22  1  0
 22 23  1  0
 23 24  2  3
 24 25  1  0
 25 26  2  0
 26 27  1  0
 27 28  2  0
 28 29  1  0
 29 30  2  0
 22 31  2  0
 17  7  1  0
 15  9  2  0
 31 19  1  0
 30 25  1  0
  1 32  1  0
  1 33  1  0
  1 34  1  0
  2 35  1  0
  2 36  1  0
  3 37  1  0
  3 38  1  0
  4 39  1  0
  4 40  1  0
  5 41  1  0
  5 42  1  0
  6 43  1  0
  6 44  1  0
  8 45  1  0
 10 46  1  0
 16 47  1  0
 18 48  1  0
 20 49  1  0
 23 50  1  0
 24 51  1  0
 26 52  1  0
 27 53  1  0
 28 54  1  0
 29 55  1  0
 30 56  1  0
M  END
>  <Batch_No>  (337) 
STK543664

>  <EC50_nM>  (337) 
387

>  <Set>  (337) 
Probe-like

>  <Molecular_Weight>  (337) 
431.5466

>  <ALogP>  (337) 
7.18

$$$$
MMV665836
     RDKit          3D

 36 38  0  0  0  0  0  0  0  0999 V2000
    6.6534   -2.1169    0.5971 C   0  0  0  0  0  0  0  0  0  0  0  0
    6.3689   -1.0462   -0.2803 O   0  0  0  0  0  0  0  0  0  0  0  0
    5.1606   -0.3692   -0.1976 C   0  0  0  0  0  0  0  0  0  0  0  0
    4.9679    0.6643   -1.0944 C   0  0  0  0  0  0  0  0  0  0  0  0
    3.7862    1.3746   -1.0623 C   0  0  0  0  0  0  0  0  0  0  0  0
    2.7804    1.0700   -0.1416 C   0  0  0  0  0  0  0  0  0  0  0  0
    1.5987    1.8926   -0.1786 C   0  0  0  0  0  0  0  0  0  0  0  0
    0.3486    1.5031   -0.2063 C   0  0  0  0  0  0  0  0  0  0  0  0
   -1.0855    2.6364   -0.2463 S   0  0  0  0  0  0  0  0  0  0  0  0
   -2.2694    1.2922   -0.3173 C   0  0  0  0  0  0  0  0  0  0  0  0
   -1.6499    0.2004   -0.3112 N   0  0  0  0  0  0  0  0  0  0  0  0
   -0.2662    0.1863   -0.2555 C   0  0  0  0  0  0  0  0  0  0  0  0
    0.4038   -0.9135   -0.2506 O   0  0  0  0  0  0  0  0  0  0  0  0
   -3.6615    1.4564   -0.3767 N   0  0  0  0  0  0  0  0  0  0  0  0
   -4.6316    0.4849   -0.0766 C   0  0  0  0  0  0  0  0  0  0  0  0
   -5.9905    0.7989   -0.2238 C   0  0  0  0  0  0  0  0  0  0  0  0
   -6.9838   -0.1124    0.0567 C   0  0  0  0  0  0  0  0  0  0  0  0
   -6.6942   -1.3828    0.4974 C   0  0  0  0  0  0  0  0  0  0  0  0
   -5.3655   -1.7148    0.6499 C   0  0  0  0  0  0  0  0  0  0  0  0
   -4.3711   -0.7905    0.3655 C   0  0  0  0  0  0  0  0  0  0  0  0
    3.0163    0.0366    0.7298 C   0  0  0  0  0  0  0  0  0  0  0  0
    4.1911   -0.6898    0.7173 C   0  0  0  0  0  0  0  0  0  0  0  0
    5.7627   -2.7955    0.7047 H   0  0  0  0  0  0  0  0  0  0  0  0
    7.4482   -2.7267    0.0953 H   0  0  0  0  0  0  0  0  0  0  0  0
    6.9999   -1.7534    1.5919 H   0  0  0  0  0  0  0  0  0  0  0  0
    5.7268    0.9303   -1.8239 H   0  0  0  0  0  0  0  0  0  0  0  0
    3.6577    2.1802   -1.7747 H   0  0  0  0  0  0  0  0  0  0  0  0
    1.7822    2.9836   -0.1843 H   0  0  0  0  0  0  0  0  0  0  0  0
   -4.0088    2.4154   -0.6798 H   0  0  0  0  0  0  0  0  0  0  0  0
   -6.2940    1.7857   -0.5686 H   0  0  0  0  0  0  0  0  0  0  0  0
   -8.0261    0.1496   -0.0638 H   0  0  0  0  0  0  0  0  0  0  0  0
   -7.5031   -2.0638    0.7058 H   0  0  0  0  0  0  0  0  0  0  0  0
   -5.1345   -2.7192    0.9983 H   0  0  0  0  0  0  0  0  0  0  0  0
   -3.3613   -1.1217    0.5112 H   0  0  0  0  0  0  0  0  0  0  0  0
    2.2897   -0.2230    1.4660 H   0  0  0  0  0  0  0  0  0  0  0  0
    4.3538   -1.5021    1.4142 H   0  0  0  0  0  0  0  0  0  0  0  0
  1  2  1  0
  2  3  1  0
  3  4  2  0
  4  5  1  0
  5  6  2  0
  6  7  1  0
  7  8  2  3
  8  9  1  0
  9 10  1  0
 10 11  2  0
 11 12  1  0
 12 13  2  0
 10 14  1  0
 14 15  1  0
 15 16  2  0
 16 17  1  0
 17 18  2  0
 18 19  1  0
 19 20  2  0
  6 21  1  0
 21 22  2  0
 22  3  1  0
 12  8  1  0
 20 15  1  0
  1 23  1  0
  1 24  1  0
  1 25  1  0
  4 26  1  0
  5 27  1  0
  7 28  1  0
 14 29  1  0
 16 30  1  0
 17 31  1  0
 18 32  1  0
 19 33  1  0
 20 34  1  0
 21 35  1  0
 22 36  1  0
M  END
>  <Batch_No>  (338) 
OSSK_000157

>  <EC50_nM>  (338) 
551

>  <Set>  (338) 
Probe-like

>  <Molecular_Weight>  (338) 
310.37026

>  <ALogP>  (338) 
3.763

$$$$
MMV665881
     RDKit          3D

 61 65  0  0  0  0  0  0  0  0999 V2000
    8.0729   -3.1570    0.2681 C   0  0  0  0  0  0  0  0  0  0  0  0
    7.6529   -2.2239    1.2456 O   0  0  0  0  0  0  0  0  0  0  0  0
    6.8270   -1.1912    0.8282 C   0  0  0  0  0  0  0  0  0  0  0  0
    6.4245   -0.2804    1.8059 C   0  0  0  0  0  0  0  0  0  0  0  0
    5.6046    0.7614    1.4443 C   0  0  0  0  0  0  0  0  0  0  0  0
    5.1692    0.9339    0.1477 C   0  0  0  0  0  0  0  0  0  0  0  0
    4.3191    2.0693   -0.1866 C   0  0  0  0  0  0  0  0  0  0  0  0
    2.9001    1.8708   -0.0284 N   0  0  0  0  0  0  0  0  0  0  0  0
    2.0692    1.1430   -0.8971 C   0  0  0  0  0  0  0  0  0  0  0  0
    2.5494    0.5826   -1.9172 O   0  0  0  0  0  0  0  0  0  0  0  0
    0.6439    1.0695   -0.5690 C   0  0  0  0  0  0  0  0  0  0  0  0
    0.0174    2.3118   -0.4041 C   0  0  0  0  0  0  0  0  0  0  0  0
   -1.3204    2.3898   -0.0944 C   0  0  0  0  0  0  0  0  0  0  0  0
   -2.0034    1.2003    0.0436 C   0  0  0  0  0  0  0  0  0  0  0  0
   -3.3094    1.2753    0.3456 N   0  0  0  0  0  0  0  0  0  0  0  0
   -3.8771    2.4817    0.4957 C   0  0  0  0  0  0  0  0  0  0  0  0
   -5.2303    2.5388    0.8074 C   0  0  0  0  0  0  0  0  0  0  0  0
   -5.8419    3.7768    0.9671 C   0  0  0  0  0  0  0  0  0  0  0  0
   -5.1481    4.9581    0.8263 C   0  0  0  0  0  0  0  0  0  0  0  0
   -3.7994    4.8439    0.5147 C   0  0  0  0  0  0  0  0  0  0  0  0
   -3.2162    3.6449    0.3616 N   0  0  0  0  0  0  0  0  0  0  0  0
   -1.9067    3.6155    0.0597 C   0  0  0  0  0  0  0  0  0  0  0  0
   -1.2406    4.6525   -0.0771 O   0  0  0  0  0  0  0  0  0  0  0  0
   -1.3704   -0.0012   -0.1224 N   0  0  0  0  0  0  0  0  0  0  0  0
   -2.2248   -1.1702    0.0447 C   0  0  0  0  0  0  0  0  0  0  0  0
   -2.8479   -1.5881   -1.2654 C   0  0  0  0  0  0  0  0  0  0  0  0
   -3.7081   -2.7715   -1.0017 C   0  0  0  0  0  0  0  0  0  0  0  0
   -5.0582   -2.6028   -0.6860 C   0  0  0  0  0  0  0  0  0  0  0  0
   -5.8876   -3.6797   -0.4328 C   0  0  0  0  0  0  0  0  0  0  0  0
   -5.4115   -4.9757   -0.4820 C   0  0  0  0  0  0  0  0  0  0  0  0
   -4.0729   -5.1278   -0.7960 C   0  0  0  0  0  0  0  0  0  0  0  0
   -3.2417   -4.0653   -1.0491 C   0  0  0  0  0  0  0  0  0  0  0  0
   -0.0654   -0.0833   -0.4244 C   0  0  0  0  0  0  0  0  0  0  0  0
    0.5163   -1.2088   -0.5800 N   0  0  0  0  0  0  0  0  0  0  0  0
    5.5796    0.0218   -0.8023 C   0  0  0  0  0  0  0  0  0  0  0  0
    6.4100   -1.0530   -0.4934 C   0  0  0  0  0  0  0  0  0  0  0  0
    8.5170   -2.5401   -0.5583 H   0  0  0  0  0  0  0  0  0  0  0  0
    8.7869   -3.9062    0.6578 H   0  0  0  0  0  0  0  0  0  0  0  0
    7.1611   -3.6398   -0.1221 H   0  0  0  0  0  0  0  0  0  0  0  0
    6.7453   -0.3861    2.8225 H   0  0  0  0  0  0  0  0  0  0  0  0
    5.3079    1.4513    2.2240 H   0  0  0  0  0  0  0  0  0  0  0  0
    4.5161    2.3870   -1.2383 H   0  0  0  0  0  0  0  0  0  0  0  0
    4.6125    2.9029    0.5186 H   0  0  0  0  0  0  0  0  0  0  0  0
    2.4258    2.3086    0.8193 H   0  0  0  0  0  0  0  0  0  0  0  0
    0.5715    3.2418   -0.5164 H   0  0  0  0  0  0  0  0  0  0  0  0
   -5.8494    1.6803    0.9369 H   0  0  0  0  0  0  0  0  0  0  0  0
   -6.9045    3.8701    1.2125 H   0  0  0  0  0  0  0  0  0  0  0  0
   -5.6170    5.9425    0.9487 H   0  0  0  0  0  0  0  0  0  0  0  0
   -3.1841    5.7446    0.3859 H   0  0  0  0  0  0  0  0  0  0  0  0
   -1.6200   -2.0451    0.3775 H   0  0  0  0  0  0  0  0  0  0  0  0
   -3.0498   -0.9556    0.7435 H   0  0  0  0  0  0  0  0  0  0  0  0
   -2.1009   -1.8683   -2.0237 H   0  0  0  0  0  0  0  0  0  0  0  0
   -3.4373   -0.7271   -1.6744 H   0  0  0  0  0  0  0  0  0  0  0  0
   -5.4985   -1.6322   -0.6292 H   0  0  0  0  0  0  0  0  0  0  0  0
   -6.9522   -3.5340   -0.1835 H   0  0  0  0  0  0  0  0  0  0  0  0
   -6.0109   -5.8427   -0.2949 H   0  0  0  0  0  0  0  0  0  0  0  0
   -3.6855   -6.1346   -0.8391 H   0  0  0  0  0  0  0  0  0  0  0  0
   -2.2004   -4.2585   -1.2904 H   0  0  0  0  0  0  0  0  0  0  0  0
    1.4974   -1.3789   -0.8109 H   0  0  0  0  0  0  0  0  0  0  0  0
    5.2553    0.1301   -1.8372 H   0  0  0  0  0  0  0  0  0  0  0  0
    6.7394   -1.7720   -1.2213 H   0  0  0  0  0  0  0  0  0  0  0  0
  1  2  1  0
  2  3  1  0
  3  4  2  0
  4  5  1  0
  5  6  2  0
  6  7  1  0
  7  8  1  0
  8  9  1  0
  9 10  2  0
  9 11  1  0
 11 12  2  0
 12 13  1  0
 13 14  2  0
 14 15  1  0
 15 16  2  0
 16 17  1  0
 17 18  2  0
 18 19  1  0
 19 20  2  0
 20 21  1  0
 21 22  1  0
 22 23  2  0
 14 24  1  0
 24 25  1  0
 25 26  1  0
 26 27  1  0
 27 28  2  0
 28 29  1  0
 29 30  2  0
 30 31  1  0
 31 32  2  0
 24 33  1  0
 33 34  2  3
  6 35  1  0
 35 36  2  0
 36  3  1  0
 33 11  1  0
 22 13  1  0
 21 16  1  0
 32 27  1  0
  1 37  1  0
  1 38  1  0
  1 39  1  0
  4 40  1  0
  5 41  1  0
  7 42  1  0
  7 43  1  0
  8 44  1  0
 12 45  1  0
 17 46  1  0
 18 47  1  0
 19 48  1  0
 20 49  1  0
 25 50  1  0
 25 51  1  0
 26 52  1  0
 26 53  1  0
 28 54  1  0
 29 55  1  0
 30 56  1  0
 31 57  1  0
 32 58  1  0
 34 59  1  0
 35 60  1  0
 36 61  1  0
M  END
>  <Batch_No>  (339) 
OSSK_492696

>  <EC50_nM>  (339) 
1060

>  <Set>  (339) 
Probe-like

>  <Molecular_Weight>  (339) 
479.5298

>  <ALogP>  (339) 
2.725

$$$$
MMV665875
     RDKit          3D

 50 53  0  0  0  0  0  0  0  0999 V2000
   -7.5581    0.8362   -0.6588 C   0  0  0  0  0  0  0  0  0  0  0  0
   -6.3162    0.4911   -0.0094 N   0  0  0  0  0  0  0  0  0  0  0  0
   -6.1499    0.0925    1.2793 C   0  0  0  0  0  0  0  0  0  0  0  0
   -7.1123   -0.0230    2.0845 O   0  0  0  0  0  0  0  0  0  0  0  0
   -4.8666   -0.1373    1.5146 N   0  0  0  0  0  0  0  0  0  0  0  0
   -4.2342   -0.5752    2.7375 C   0  0  0  0  0  0  0  0  0  0  0  0
   -4.2161    0.1176    0.3674 C   0  0  0  0  0  0  0  0  0  0  0  0
   -2.8763    0.0397    0.0549 C   0  0  0  0  0  0  0  0  0  0  0  0
   -2.4682    0.3666   -1.2400 C   0  0  0  0  0  0  0  0  0  0  0  0
   -0.9956    0.2475   -1.4862 C   0  0  0  0  0  0  0  0  0  0  0  0
   -0.3856    1.5161   -1.1792 N   0  0  0  0  0  0  0  0  0  0  0  0
    1.0601    1.5011   -1.3563 C   0  0  0  0  0  0  0  0  0  0  0  0
    1.7279    0.6361   -0.3337 C   0  0  0  0  0  0  0  0  0  0  0  0
    3.1717    0.6416   -0.5412 N   0  0  0  0  0  0  0  0  0  0  0  0
    3.9562   -0.1274    0.3780 C   0  0  0  0  0  0  0  0  0  0  0  0
    3.3399   -0.8256    1.4057 C   0  0  0  0  0  0  0  0  0  0  0  0
    4.0251   -1.5818    2.3273 C   0  0  0  0  0  0  0  0  0  0  0  0
    5.3601   -1.6443    2.2225 N   0  0  0  0  0  0  0  0  0  0  0  0
    5.9990   -0.9883    1.2478 C   0  0  0  0  0  0  0  0  0  0  0  0
    7.3863   -1.1200    1.2279 C   0  0  0  0  0  0  0  0  0  0  0  0
    8.0528   -0.4355    0.2111 C   0  0  0  0  0  0  0  0  0  0  0  0
    9.7955   -0.5196    0.0773 Cl  0  0  0  0  0  0  0  0  0  0  0  0
    7.3812    0.3262   -0.7194 C   0  0  0  0  0  0  0  0  0  0  0  0
    6.0045    0.4476   -0.6872 C   0  0  0  0  0  0  0  0  0  0  0  0
    5.3315   -0.2130    0.2981 C   0  0  0  0  0  0  0  0  0  0  0  0
   -3.3556    0.7636   -2.2143 C   0  0  0  0  0  0  0  0  0  0  0  0
   -4.7033    0.8397   -1.8922 C   0  0  0  0  0  0  0  0  0  0  0  0
   -5.1066    0.5153   -0.6086 C   0  0  0  0  0  0  0  0  0  0  0  0
   -7.4960    1.8181   -1.1793 H   0  0  0  0  0  0  0  0  0  0  0  0
   -7.8419    0.0526   -1.3775 H   0  0  0  0  0  0  0  0  0  0  0  0
   -8.3676    0.9406    0.0940 H   0  0  0  0  0  0  0  0  0  0  0  0
   -4.9794   -0.8227    3.5124 H   0  0  0  0  0  0  0  0  0  0  0  0
   -3.6555   -1.5046    2.5042 H   0  0  0  0  0  0  0  0  0  0  0  0
   -3.4979    0.1773    3.1097 H   0  0  0  0  0  0  0  0  0  0  0  0
   -2.1521   -0.2741    0.8161 H   0  0  0  0  0  0  0  0  0  0  0  0
   -0.5556   -0.5949   -0.9568 H   0  0  0  0  0  0  0  0  0  0  0  0
   -0.8779    0.0446   -2.5820 H   0  0  0  0  0  0  0  0  0  0  0  0
   -0.7590    2.2916   -1.7416 H   0  0  0  0  0  0  0  0  0  0  0  0
    1.3637    1.2483   -2.3904 H   0  0  0  0  0  0  0  0  0  0  0  0
    1.3847    2.5480   -1.1774 H   0  0  0  0  0  0  0  0  0  0  0  0
    1.5505    1.0112    0.7076 H   0  0  0  0  0  0  0  0  0  0  0  0
    1.3576   -0.4169   -0.3175 H   0  0  0  0  0  0  0  0  0  0  0  0
    3.5389    1.1857   -1.3194 H   0  0  0  0  0  0  0  0  0  0  0  0
    2.2596   -0.7925    1.5149 H   0  0  0  0  0  0  0  0  0  0  0  0
    3.5255   -2.1219    3.1255 H   0  0  0  0  0  0  0  0  0  0  0  0
    7.9155   -1.7159    1.9559 H   0  0  0  0  0  0  0  0  0  0  0  0
    7.9126    0.8597   -1.5135 H   0  0  0  0  0  0  0  0  0  0  0  0
    5.5158    1.0401   -1.4165 H   0  0  0  0  0  0  0  0  0  0  0  0
   -2.9870    1.0096   -3.2133 H   0  0  0  0  0  0  0  0  0  0  0  0
   -5.4012    1.1536   -2.6625 H   0  0  0  0  0  0  0  0  0  0  0  0
  1  2  1  0
  2  3  1  0
  3  4  2  0
  3  5  1  0
  5  6  1  0
  5  7  1  0
  7  8  2  0
  8  9  1  0
  9 10  1  0
 10 11  1  0
 11 12  1  0
 12 13  1  0
 13 14  1  0
 14 15  1  0
 15 16  2  0
 16 17  1  0
 17 18  2  0
 18 19  1  0
 19 20  2  0
 20 21  1  0
 21 22  1  0
 21 23  2  0
 23 24  1  0
 24 25  2  0
  9 26  2  0
 26 27  1  0
 27 28  2  0
 28  2  1  0
 28  7  1  0
 25 15  1  0
 25 19  1  0
  1 29  1  0
  1 30  1  0
  1 31  1  0
  6 32  1  0
  6 33  1  0
  6 34  1  0
  8 35  1  0
 10 36  1  0
 10 37  1  0
 11 38  1  0
 12 39  1  0
 12 40  1  0
 13 41  1  0
 13 42  1  0
 14 43  1  0
 16 44  1  0
 17 45  1  0
 20 46  1  0
 23 47  1  0
 24 48  1  0
 26 49  1  0
 27 50  1  0
M  END
>  <Batch_No>  (340) 
OSSL_100182

>  <EC50_nM>  (340) 
545

>  <Set>  (340) 
Probe-like

>  <Molecular_Weight>  (340) 
395.88528

>  <ALogP>  (340) 
2.95

$$$$
MMV007020
     RDKit          3D

 47 49  0  0  0  0  0  0  0  0999 V2000
    6.0248    1.7778    2.3067 C   0  0  0  0  0  0  0  0  0  0  0  0
    4.8621    1.2644    1.4677 C   0  0  0  0  0  0  0  0  0  0  0  0
    5.3362    0.7403    0.2408 O   0  0  0  0  0  0  0  0  0  0  0  0
    4.3912    0.2264   -0.6476 C   0  0  0  0  0  0  0  0  0  0  0  0
    4.8716   -0.2792   -1.8362 C   0  0  0  0  0  0  0  0  0  0  0  0
    3.9598   -0.7880   -2.7214 C   0  0  0  0  0  0  0  0  0  0  0  0
    2.6116   -0.7960   -2.4378 C   0  0  0  0  0  0  0  0  0  0  0  0
    1.7726   -1.3049   -3.3379 N   0  0  0  0  0  0  0  0  0  0  0  0
    0.4400   -1.3558   -3.1489 C   0  0  0  0  0  0  0  0  0  0  0  0
   -0.4600   -1.9216   -4.1566 C   0  0  0  0  0  0  0  0  0  0  0  0
   -0.0639   -0.8452   -1.9453 C   0  0  0  0  0  0  0  0  0  0  0  0
    0.7478   -0.3084   -0.9779 C   0  0  0  0  0  0  0  0  0  0  0  0
    0.2479    0.1922    0.2499 N   0  0  0  0  0  0  0  0  0  0  0  0
   -1.1289    0.1210    0.6293 C   0  0  0  0  0  0  0  0  0  0  0  0
   -1.8848   -1.0231    0.5223 C   0  0  0  0  0  0  0  0  0  0  0  0
   -3.2317   -1.0563    0.8792 C   0  0  0  0  0  0  0  0  0  0  0  0
   -3.8027    0.1059    1.3525 C   0  0  0  0  0  0  0  0  0  0  0  0
   -3.0534    1.2780    1.4698 C   0  0  0  0  0  0  0  0  0  0  0  0
   -1.7042    1.3032    1.1096 C   0  0  0  0  0  0  0  0  0  0  0  0
   -5.1642    0.1209    1.7266 N   0  0  0  0  0  0  0  0  0  0  0  0
   -5.9736   -1.0675    1.6212 C   0  0  0  0  0  0  0  0  0  0  0  0
   -5.7874    1.3317    2.2274 C   0  0  0  0  0  0  0  0  0  0  0  0
    2.1020   -0.2876   -1.2368 C   0  0  0  0  0  0  0  0  0  0  0  0
    3.0382    0.2179   -0.3642 C   0  0  0  0  0  0  0  0  0  0  0  0
    6.3035    1.0329    3.0614 H   0  0  0  0  0  0  0  0  0  0  0  0
    5.7699    2.7373    2.7973 H   0  0  0  0  0  0  0  0  0  0  0  0
    6.8575    1.9754    1.6031 H   0  0  0  0  0  0  0  0  0  0  0  0
    4.2837    2.1790    1.1923 H   0  0  0  0  0  0  0  0  0  0  0  0
    4.2208    0.5759    2.0352 H   0  0  0  0  0  0  0  0  0  0  0  0
    5.9148   -0.2985   -2.1102 H   0  0  0  0  0  0  0  0  0  0  0  0
    4.2916   -1.1951   -3.6662 H   0  0  0  0  0  0  0  0  0  0  0  0
   -1.2021   -1.2069   -4.5622 H   0  0  0  0  0  0  0  0  0  0  0  0
    0.1435   -2.2581   -5.0235 H   0  0  0  0  0  0  0  0  0  0  0  0
   -0.9971   -2.8179   -3.7329 H   0  0  0  0  0  0  0  0  0  0  0  0
   -1.1224   -0.8894   -1.8387 H   0  0  0  0  0  0  0  0  0  0  0  0
    0.8615    0.6577    0.9738 H   0  0  0  0  0  0  0  0  0  0  0  0
   -1.4745   -1.9558    0.1743 H   0  0  0  0  0  0  0  0  0  0  0  0
   -3.7975   -1.9827    0.7794 H   0  0  0  0  0  0  0  0  0  0  0  0
   -3.4772    2.2013    1.8380 H   0  0  0  0  0  0  0  0  0  0  0  0
   -1.1210    2.2196    1.2020 H   0  0  0  0  0  0  0  0  0  0  0  0
   -5.6993   -1.7648    2.4400 H   0  0  0  0  0  0  0  0  0  0  0  0
   -5.7869   -1.5575    0.6287 H   0  0  0  0  0  0  0  0  0  0  0  0
   -7.0649   -0.8336    1.6181 H   0  0  0  0  0  0  0  0  0  0  0  0
   -5.5038    2.1734    1.5579 H   0  0  0  0  0  0  0  0  0  0  0  0
   -6.8978    1.2416    2.2049 H   0  0  0  0  0  0  0  0  0  0  0  0
   -5.4018    1.4890    3.2489 H   0  0  0  0  0  0  0  0  0  0  0  0
    2.7481    0.6312    0.5860 H   0  0  0  0  0  0  0  0  0  0  0  0
  1  2  1  0
  2  3  1  0
  3  4  1  0
  4  5  2  0
  5  6  1  0
  6  7  2  0
  7  8  1  0
  8  9  2  0
  9 10  1  0
  9 11  1  0
 11 12  2  0
 12 13  1  0
 13 14  1  0
 14 15  2  0
 15 16  1  0
 16 17  2  0
 17 18  1  0
 18 19  2  0
 17 20  1  0
 20 21  1  0
 20 22  1  0
 12 23  1  0
 23 24  2  0
 24  4  1  0
 23  7  1  0
 19 14  1  0
  1 25  1  0
  1 26  1  0
  1 27  1  0
  2 28  1  0
  2 29  1  0
  5 30  1  0
  6 31  1  0
 10 32  1  0
 10 33  1  0
 10 34  1  0
 11 35  1  0
 13 36  1  0
 15 37  1  0
 16 38  1  0
 18 39  1  0
 19 40  1  0
 21 41  1  0
 21 42  1  0
 21 43  1  0
 22 44  1  0
 22 45  1  0
 22 46  1  0
 24 47  1  0
M  END
>  <Batch_No>  (341) 
4358-4401

>  <EC50_nM>  (341) 
4000

>  <Set>  (341) 
Probe-like

>  <Molecular_Weight>  (341) 
321.41611

>  <ALogP>  (341) 
4.343

$$$$
MMV006656
     RDKit          3D

 55 56  0  0  0  0  0  0  0  0999 V2000
   -2.0463   -6.2852   -1.1949 C   0  0  0  0  0  0  0  0  0  0  0  0
   -1.4066   -4.9697   -1.5190 C   0  0  0  0  0  0  0  0  0  0  0  0
   -1.9622   -3.9006   -0.7770 O   0  0  0  0  0  0  0  0  0  0  0  0
   -1.4327   -2.6281   -1.0071 C   0  0  0  0  0  0  0  0  0  0  0  0
   -0.4978   -2.5775   -1.8706 O   0  0  0  0  0  0  0  0  0  0  0  0
   -1.9115   -1.4419   -0.3126 C   0  0  0  0  0  0  0  0  0  0  0  0
   -2.8889   -1.6066    0.5669 C   0  0  0  0  0  0  0  0  0  0  0  0
   -3.3840   -0.4715    1.2660 N   0  0  0  0  0  0  0  0  0  0  0  0
   -4.4538   -0.6175    2.2358 C   0  0  0  0  0  0  0  0  0  0  0  0
   -2.8460    0.8176    1.0315 C   0  0  0  0  0  0  0  0  0  0  0  0
   -1.8697    0.9641    0.1494 C   0  0  0  0  0  0  0  0  0  0  0  0
   -1.2867   -0.1505   -0.6277 C   0  0  0  0  0  0  0  0  0  0  0  0
    0.1750   -0.1422   -0.3418 C   0  0  0  0  0  0  0  0  0  0  0  0
    0.5768   -0.4064    0.9447 C   0  0  0  0  0  0  0  0  0  0  0  0
    1.9388   -0.4092    1.2588 C   0  0  0  0  0  0  0  0  0  0  0  0
    2.5567   -0.7656    3.0114 Br  0  0  0  0  0  0  0  0  0  0  0  0
    2.8974   -0.1459    0.2764 C   0  0  0  0  0  0  0  0  0  0  0  0
    4.2559   -0.1469    0.5813 O   0  0  0  0  0  0  0  0  0  0  0  0
    4.8364    1.0969    0.9995 C   0  0  0  0  0  0  0  0  0  0  0  0
    6.2947    0.9442    1.2916 C   0  0  0  0  0  0  0  0  0  0  0  0
    2.4708    0.1163   -1.0068 C   0  0  0  0  0  0  0  0  0  0  0  0
    3.4431    0.3742   -1.9618 O   0  0  0  0  0  0  0  0  0  0  0  0
    3.0766    0.6555   -3.3184 C   0  0  0  0  0  0  0  0  0  0  0  0
    1.1221    0.1136   -1.2926 C   0  0  0  0  0  0  0  0  0  0  0  0
   -1.3331    2.3054   -0.0729 C   0  0  0  0  0  0  0  0  0  0  0  0
   -0.3950    2.5291   -0.9033 O   0  0  0  0  0  0  0  0  0  0  0  0
   -1.8230    3.4142    0.6159 O   0  0  0  0  0  0  0  0  0  0  0  0
   -1.3416    4.7190    0.4376 C   0  0  0  0  0  0  0  0  0  0  0  0
   -2.0672    5.7005    1.3202 C   0  0  0  0  0  0  0  0  0  0  0  0
   -2.2602   -6.8570   -2.1126 H   0  0  0  0  0  0  0  0  0  0  0  0
   -3.0048   -6.1653   -0.6123 H   0  0  0  0  0  0  0  0  0  0  0  0
   -1.3916   -6.9428   -0.5585 H   0  0  0  0  0  0  0  0  0  0  0  0
   -0.3409   -5.0395   -1.2034 H   0  0  0  0  0  0  0  0  0  0  0  0
   -1.4963   -4.7911   -2.6233 H   0  0  0  0  0  0  0  0  0  0  0  0
   -3.3358   -2.5722    0.7836 H   0  0  0  0  0  0  0  0  0  0  0  0
   -5.1617   -1.4230    1.8945 H   0  0  0  0  0  0  0  0  0  0  0  0
   -4.1076   -0.8454    3.2462 H   0  0  0  0  0  0  0  0  0  0  0  0
   -5.0944    0.3079    2.2241 H   0  0  0  0  0  0  0  0  0  0  0  0
   -3.2166    1.6994    1.5616 H   0  0  0  0  0  0  0  0  0  0  0  0
   -1.4829    0.0774   -1.7058 H   0  0  0  0  0  0  0  0  0  0  0  0
   -0.1166   -0.6180    1.7514 H   0  0  0  0  0  0  0  0  0  0  0  0
    4.3228    1.4122    1.9311 H   0  0  0  0  0  0  0  0  0  0  0  0
    4.7076    1.8718    0.2197 H   0  0  0  0  0  0  0  0  0  0  0  0
    6.5600    1.6168    2.1268 H   0  0  0  0  0  0  0  0  0  0  0  0
    6.5908   -0.0821    1.5827 H   0  0  0  0  0  0  0  0  0  0  0  0
    6.9191    1.2739    0.4314 H   0  0  0  0  0  0  0  0  0  0  0  0
    2.1969    1.3482   -3.3484 H   0  0  0  0  0  0  0  0  0  0  0  0
    2.7992   -0.3075   -3.7698 H   0  0  0  0  0  0  0  0  0  0  0  0
    3.8848    1.1451   -3.8624 H   0  0  0  0  0  0  0  0  0  0  0  0
    0.7780    0.3199   -2.3042 H   0  0  0  0  0  0  0  0  0  0  0  0
   -0.2383    4.7613    0.5255 H   0  0  0  0  0  0  0  0  0  0  0  0
   -1.5648    4.9795   -0.6347 H   0  0  0  0  0  0  0  0  0  0  0  0
   -2.6749    5.1099    2.0431 H   0  0  0  0  0  0  0  0  0  0  0  0
   -2.6786    6.4016    0.7159 H   0  0  0  0  0  0  0  0  0  0  0  0
   -1.2914    6.2337    1.9173 H   0  0  0  0  0  0  0  0  0  0  0  0
  1  2  1  0
  2  3  1  0
  3  4  1  0
  4  5  2  0
  4  6  1  0
  6  7  2  0
  7  8  1  0
  8  9  1  0
  8 10  1  0
 10 11  2  0
 11 12  1  0
 12 13  1  0
 13 14  2  0
 14 15  1  0
 15 16  1  0
 15 17  2  0
 17 18  1  0
 18 19  1  0
 19 20  1  0
 17 21  1  0
 21 22  1  0
 22 23  1  0
 21 24  2  0
 11 25  1  0
 25 26  2  0
 25 27  1  0
 27 28  1  0
 28 29  1  0
 12  6  1  0
 24 13  1  0
  1 30  1  0
  1 31  1  0
  1 32  1  0
  2 33  1  0
  2 34  1  0
  7 35  1  0
  9 36  1  0
  9 37  1  0
  9 38  1  0
 10 39  1  0
 12 40  1  0
 14 41  1  0
 19 42  1  0
 19 43  1  0
 20 44  1  0
 20 45  1  0
 20 46  1  0
 23 47  1  0
 23 48  1  0
 23 49  1  0
 24 50  1  0
 28 51  1  0
 28 52  1  0
 29 53  1  0
 29 54  1  0
 29 55  1  0
M  END
>  <Batch_No>  (342) 
K837-0260

>  <EC50_nM>  (342) 
518.5

>  <Set>  (342) 
Probe-like

>  <Molecular_Weight>  (342) 
468.33823

>  <ALogP>  (342) 
3.142

$$$$
MMV396726
     RDKit          3D

 65 70  0  0  0  0  0  0  0  0999 V2000
    1.8043   -0.9877   -1.4531 C   0  0  0  0  0  0  0  0  0  0  0  0
    1.2331   -1.0348   -2.7698 C   0  0  0  0  0  0  0  0  0  0  0  0
    0.7746   -1.0730   -3.8470 N   0  0  0  0  0  0  0  0  0  0  0  0
    2.9697   -1.4972   -1.0101 N   0  0  0  0  0  0  0  0  0  0  0  0
    3.1357   -1.2358    0.2912 C   0  0  0  0  0  0  0  0  0  0  0  0
    4.2340   -1.5754    1.2285 C   0  0  0  0  0  0  0  0  0  0  0  0
    5.2750   -0.5306    1.3236 C   0  0  0  0  0  0  0  0  0  0  0  0
    5.2761    0.3704    2.3969 C   0  0  0  0  0  0  0  0  0  0  0  0
    6.2193    1.3717    2.5018 C   0  0  0  0  0  0  0  0  0  0  0  0
    7.2052    1.5338    1.5567 C   0  0  0  0  0  0  0  0  0  0  0  0
    7.2229    0.6634    0.4998 C   0  0  0  0  0  0  0  0  0  0  0  0
    8.2077    0.8038   -0.4563 C   0  0  0  0  0  0  0  0  0  0  0  0
    8.2928   -0.0393   -1.5445 C   0  0  0  0  0  0  0  0  0  0  0  0
    7.3471   -1.0396   -1.6437 C   0  0  0  0  0  0  0  0  0  0  0  0
    6.3679   -1.1740   -0.6871 C   0  0  0  0  0  0  0  0  0  0  0  0
    6.2730   -0.3439    0.3956 C   0  0  0  0  0  0  0  0  0  0  0  0
    2.0579   -0.5563    0.6538 O   0  0  0  0  0  0  0  0  0  0  0  0
    1.2363   -0.3838   -0.3513 C   0  0  0  0  0  0  0  0  0  0  0  0
    0.0094    0.3086   -0.2411 N   0  0  0  0  0  0  0  0  0  0  0  0
   -0.4689    0.8933    1.0094 C   0  0  0  0  0  0  0  0  0  0  0  0
   -1.9201    0.5125    1.1262 C   0  0  0  0  0  0  0  0  0  0  0  0
   -0.8499    0.4752   -1.3951 C   0  0  0  0  0  0  0  0  0  0  0  0
   -1.9836    1.4306   -1.0946 C   0  0  0  0  0  0  0  0  0  0  0  0
   -2.7464    1.0273    0.0640 N   0  0  0  0  0  0  0  0  0  0  0  0
   -3.7157   -0.0034   -0.2597 C   0  0  0  0  0  0  0  0  0  0  0  0
   -4.6838    0.4307   -1.2759 C   0  0  0  0  0  0  0  0  0  0  0  0
   -5.0548   -0.3492   -2.3525 C   0  0  0  0  0  0  0  0  0  0  0  0
   -5.9735    0.1676   -3.2426 C   0  0  0  0  0  0  0  0  0  0  0  0
   -6.5365    1.4201   -3.1089 C   0  0  0  0  0  0  0  0  0  0  0  0
   -6.1602    2.2080   -2.0190 C   0  0  0  0  0  0  0  0  0  0  0  0
   -5.2405    1.6994   -1.1220 C   0  0  0  0  0  0  0  0  0  0  0  0
   -4.3261   -0.5619    0.9680 C   0  0  0  0  0  0  0  0  0  0  0  0
   -4.7721    0.2156    2.0190 C   0  0  0  0  0  0  0  0  0  0  0  0
   -5.3372   -0.3541    3.1448 C   0  0  0  0  0  0  0  0  0  0  0  0
   -5.4815   -1.7207    3.2709 C   0  0  0  0  0  0  0  0  0  0  0  0
   -5.0387   -2.5140    2.2247 C   0  0  0  0  0  0  0  0  0  0  0  0
   -4.4773   -1.9361    1.1077 C   0  0  0  0  0  0  0  0  0  0  0  0
    4.6574   -2.5819    1.0212 H   0  0  0  0  0  0  0  0  0  0  0  0
    3.7919   -1.6802    2.2471 H   0  0  0  0  0  0  0  0  0  0  0  0
    4.5330    0.3120    3.1843 H   0  0  0  0  0  0  0  0  0  0  0  0
    6.2021    2.0675    3.3515 H   0  0  0  0  0  0  0  0  0  0  0  0
    7.9570    2.3057    1.6081 H   0  0  0  0  0  0  0  0  0  0  0  0
    8.9547    1.5875   -0.3859 H   0  0  0  0  0  0  0  0  0  0  0  0
    9.0837    0.1035   -2.2765 H   0  0  0  0  0  0  0  0  0  0  0  0
    7.3771   -1.7166   -2.4737 H   0  0  0  0  0  0  0  0  0  0  0  0
    5.6659   -1.9731   -0.8104 H   0  0  0  0  0  0  0  0  0  0  0  0
    0.0578    0.3442    1.8235 H   0  0  0  0  0  0  0  0  0  0  0  0
   -0.3258    1.9797    1.0229 H   0  0  0  0  0  0  0  0  0  0  0  0
   -1.9977   -0.5848    1.1993 H   0  0  0  0  0  0  0  0  0  0  0  0
   -2.3106    0.9295    2.0864 H   0  0  0  0  0  0  0  0  0  0  0  0
   -0.2458    0.9462   -2.1981 H   0  0  0  0  0  0  0  0  0  0  0  0
   -1.2252   -0.4813   -1.7793 H   0  0  0  0  0  0  0  0  0  0  0  0
   -1.6174    2.4634   -0.9788 H   0  0  0  0  0  0  0  0  0  0  0  0
   -2.6517    1.4129   -1.9810 H   0  0  0  0  0  0  0  0  0  0  0  0
   -3.1110   -0.8231   -0.7333 H   0  0  0  0  0  0  0  0  0  0  0  0
   -4.6087   -1.3174   -2.4404 H   0  0  0  0  0  0  0  0  0  0  0  0
   -6.2679   -0.4204   -4.0754 H   0  0  0  0  0  0  0  0  0  0  0  0
   -7.2555    1.8302   -3.8018 H   0  0  0  0  0  0  0  0  0  0  0  0
   -6.5536    3.1887   -1.8465 H   0  0  0  0  0  0  0  0  0  0  0  0
   -4.9515    2.3215   -0.2734 H   0  0  0  0  0  0  0  0  0  0  0  0
   -4.6790    1.2907    1.9636 H   0  0  0  0  0  0  0  0  0  0  0  0
   -5.6934    0.2433    3.9798 H   0  0  0  0  0  0  0  0  0  0  0  0
   -5.9182   -2.1991    4.1348 H   0  0  0  0  0  0  0  0  0  0  0  0
   -5.1118   -3.5886    2.2379 H   0  0  0  0  0  0  0  0  0  0  0  0
   -4.1310   -2.5809    0.2861 H   0  0  0  0  0  0  0  0  0  0  0  0
  1  2  1  0
  2  3  3  0
  1  4  1  0
  4  5  2  0
  5  6  1  0
  6  7  1  0
  7  8  2  0
  8  9  1  0
  9 10  2  0
 10 11  1  0
 11 12  1  0
 12 13  2  0
 13 14  1  0
 14 15  2  0
 11 16  2  0
  5 17  1  0
 17 18  1  0
 18 19  1  0
 19 20  1  0
 20 21  1  0
 19 22  1  0
 22 23  1  0
 23 24  1  0
 24 25  1  0
 25 26  1  0
 26 27  2  0
 27 28  1  0
 28 29  2  0
 29 30  1  0
 30 31  2  0
 25 32  1  0
 32 33  2  0
 33 34  1  0
 34 35  2  0
 35 36  1  0
 36 37  2  0
 18  1  2  0
 16  7  1  0
 16 15  1  0
 24 21  1  0
 31 26  1  0
 37 32  1  0
  6 38  1  0
  6 39  1  0
  8 40  1  0
  9 41  1  0
 10 42  1  0
 12 43  1  0
 13 44  1  0
 14 45  1  0
 15 46  1  0
 20 47  1  0
 20 48  1  0
 21 49  1  0
 21 50  1  0
 22 51  1  0
 22 52  1  0
 23 53  1  0
 23 54  1  0
 25 55  1  0
 27 56  1  0
 28 57  1  0
 29 58  1  0
 30 59  1  0
 31 60  1  0
 33 61  1  0
 34 62  1  0
 35 63  1  0
 36 64  1  0
 37 65  1  0
M  END
>  <Batch_No>  (343) 
STK707634

>  <EC50_nM>  (343) 
1160

>  <Set>  (343) 
Probe-like

>  <Molecular_Weight>  (343) 
484.59092

>  <ALogP>  (343) 
6.342

$$$$
MMV006522
     RDKit          3D

 39 41  0  0  0  0  0  0  0  0999 V2000
    4.2734    2.2672    0.4936 C   0  0  0  0  0  0  0  0  0  0  0  0
    2.9923    1.4577    0.5093 C   0  0  0  0  0  0  0  0  0  0  0  0
    3.3061    0.1575    0.0274 O   0  0  0  0  0  0  0  0  0  0  0  0
    2.2718   -0.7606   -0.0443 C   0  0  0  0  0  0  0  0  0  0  0  0
    2.5710   -2.0260   -0.5119 C   0  0  0  0  0  0  0  0  0  0  0  0
    1.6110   -3.0089   -0.6201 C   0  0  0  0  0  0  0  0  0  0  0  0
    0.3152   -2.6801   -0.2382 C   0  0  0  0  0  0  0  0  0  0  0  0
   -0.6269   -3.6587   -0.3403 N   0  0  0  0  0  0  0  0  0  0  0  0
   -1.8964   -3.3546    0.0361 C   0  0  0  0  0  0  0  0  0  0  0  0
   -2.9627   -4.4089   -0.0620 C   0  0  0  0  0  0  0  0  0  0  0  0
   -2.2503   -2.1089    0.5082 C   0  0  0  0  0  0  0  0  0  0  0  0
   -1.2966   -1.0896    0.6201 C   0  0  0  0  0  0  0  0  0  0  0  0
   -1.6921    0.1626    1.1075 N   0  0  0  0  0  0  0  0  0  0  0  0
   -1.6319    1.3819    0.3802 C   0  0  0  0  0  0  0  0  0  0  0  0
   -1.3378    1.4425   -0.9727 C   0  0  0  0  0  0  0  0  0  0  0  0
   -1.2809    2.6297   -1.6703 C   0  0  0  0  0  0  0  0  0  0  0  0
   -1.5231    3.8215   -1.0173 C   0  0  0  0  0  0  0  0  0  0  0  0
   -1.4549    5.4932   -1.9463 Br  0  0  0  0  0  0  0  0  0  0  0  0
   -1.8206    3.8031    0.3348 C   0  0  0  0  0  0  0  0  0  0  0  0
   -1.8694    2.5896    1.0056 C   0  0  0  0  0  0  0  0  0  0  0  0
   -0.0195   -1.4274    0.2324 C   0  0  0  0  0  0  0  0  0  0  0  0
    0.9729   -0.4751    0.3244 C   0  0  0  0  0  0  0  0  0  0  0  0
    5.0502    1.7630   -0.1197 H   0  0  0  0  0  0  0  0  0  0  0  0
    4.0960    3.2843    0.0685 H   0  0  0  0  0  0  0  0  0  0  0  0
    4.6139    2.3768    1.5448 H   0  0  0  0  0  0  0  0  0  0  0  0
    2.2221    1.9290   -0.1638 H   0  0  0  0  0  0  0  0  0  0  0  0
    2.5745    1.4149    1.5393 H   0  0  0  0  0  0  0  0  0  0  0  0
    3.5786   -2.3062   -0.8168 H   0  0  0  0  0  0  0  0  0  0  0  0
    1.8741   -3.9962   -0.9911 H   0  0  0  0  0  0  0  0  0  0  0  0
   -2.5738   -5.3708    0.3281 H   0  0  0  0  0  0  0  0  0  0  0  0
   -3.8158   -4.1242    0.5909 H   0  0  0  0  0  0  0  0  0  0  0  0
   -3.3671   -4.4577   -1.0863 H   0  0  0  0  0  0  0  0  0  0  0  0
   -3.2904   -1.9434    0.7901 H   0  0  0  0  0  0  0  0  0  0  0  0
   -2.0638    0.2001    2.0925 H   0  0  0  0  0  0  0  0  0  0  0  0
   -1.1495    0.5280   -1.4844 H   0  0  0  0  0  0  0  0  0  0  0  0
   -1.0503    2.6798   -2.7321 H   0  0  0  0  0  0  0  0  0  0  0  0
   -2.0166    4.7163    0.8819 H   0  0  0  0  0  0  0  0  0  0  0  0
   -2.1059    2.5893    2.0757 H   0  0  0  0  0  0  0  0  0  0  0  0
    0.7731    0.5089    0.6905 H   0  0  0  0  0  0  0  0  0  0  0  0
  1  2  1  0
  2  3  1  0
  3  4  1  0
  4  5  2  0
  5  6  1  0
  6  7  2  0
  7  8  1  0
  8  9  2  0
  9 10  1  0
  9 11  1  0
 11 12  2  0
 12 13  1  0
 13 14  1  0
 14 15  2  0
 15 16  1  0
 16 17  2  0
 17 18  1  0
 17 19  1  0
 19 20  2  0
 12 21  1  0
 21 22  2  0
 22  4  1  0
 21  7  1  0
 20 14  1  0
  1 23  1  0
  1 24  1  0
  1 25  1  0
  2 26  1  0
  2 27  1  0
  5 28  1  0
  6 29  1  0
 10 30  1  0
 10 31  1  0
 10 32  1  0
 11 33  1  0
 13 34  1  0
 15 35  1  0
 16 36  1  0
 19 37  1  0
 20 38  1  0
 22 39  1  0
M  END
>  <Batch_No>  (344) 
STK847991

>  <EC50_nM>  (344) 
480

>  <Set>  (344) 
Probe-like

>  <Molecular_Weight>  (344) 
357.24438

>  <ALogP>  (344) 
4.929

$$$$
MMV666686
     RDKit          3D

 43 45  0  0  0  0  0  0  0  0999 V2000
   -4.6252    0.3757   -1.6713 C   0  0  0  0  0  0  0  0  0  0  0  0
   -3.4942    0.2473   -0.8243 O   0  0  0  0  0  0  0  0  0  0  0  0
   -3.7166   -0.1308    0.4904 C   0  0  0  0  0  0  0  0  0  0  0  0
   -4.9926   -0.3810    0.9854 C   0  0  0  0  0  0  0  0  0  0  0  0
   -5.2158   -0.7564    2.2899 C   0  0  0  0  0  0  0  0  0  0  0  0
   -4.1567   -0.8933    3.1450 C   0  0  0  0  0  0  0  0  0  0  0  0
   -2.9000   -0.6494    2.6675 C   0  0  0  0  0  0  0  0  0  0  0  0
   -2.6506   -0.2711    1.3610 C   0  0  0  0  0  0  0  0  0  0  0  0
   -1.2709   -0.0335    0.9599 C   0  0  0  0  0  0  0  0  0  0  0  0
   -0.2880   -0.1517    1.7248 O   0  0  0  0  0  0  0  0  0  0  0  0
   -1.0258    0.3472   -0.3474 O   0  0  0  0  0  0  0  0  0  0  0  0
    0.2382    0.5976   -0.8238 N   0  0  0  0  0  0  0  0  0  0  0  0
    0.5396    0.3121   -2.0618 C   0  0  0  0  0  0  0  0  0  0  0  0
   -0.4102   -0.2603   -2.9533 N   0  0  0  0  0  0  0  0  0  0  0  0
    1.9416    0.6297   -2.4789 C   0  0  0  0  0  0  0  0  0  0  0  0
    2.7310    1.2105   -1.3760 C   0  0  0  0  0  0  0  0  0  0  0  0
    3.0305    2.5528   -1.2647 C   0  0  0  0  0  0  0  0  0  0  0  0
    3.7591    3.0926   -0.2389 C   0  0  0  0  0  0  0  0  0  0  0  0
    4.2373    2.2515    0.7655 C   0  0  0  0  0  0  0  0  0  0  0  0
    3.9488    0.8868    0.6779 C   0  0  0  0  0  0  0  0  0  0  0  0
    4.4159    0.0432    1.6623 C   0  0  0  0  0  0  0  0  0  0  0  0
    4.1806   -1.3127    1.6556 C   0  0  0  0  0  0  0  0  0  0  0  0
    3.4444   -1.8231    0.6092 C   0  0  0  0  0  0  0  0  0  0  0  0
    2.9616   -0.9947   -0.3964 C   0  0  0  0  0  0  0  0  0  0  0  0
    3.2082    0.3769   -0.3757 C   0  0  0  0  0  0  0  0  0  0  0  0
   -4.3495    0.7349   -2.6633 H   0  0  0  0  0  0  0  0  0  0  0  0
   -5.0985   -0.6266   -1.6992 H   0  0  0  0  0  0  0  0  0  0  0  0
   -5.3356    1.0456   -1.1458 H   0  0  0  0  0  0  0  0  0  0  0  0
   -5.8556   -0.2825    0.3373 H   0  0  0  0  0  0  0  0  0  0  0  0
   -6.2131   -0.9360    2.6188 H   0  0  0  0  0  0  0  0  0  0  0  0
   -4.3345   -1.1892    4.1729 H   0  0  0  0  0  0  0  0  0  0  0  0
   -2.0659   -0.7594    3.3485 H   0  0  0  0  0  0  0  0  0  0  0  0
   -1.1945    0.2713   -3.3883 H   0  0  0  0  0  0  0  0  0  0  0  0
   -0.3520   -1.2829   -3.2158 H   0  0  0  0  0  0  0  0  0  0  0  0
    1.8484    1.3405   -3.3227 H   0  0  0  0  0  0  0  0  0  0  0  0
    2.4518   -0.2611   -2.8615 H   0  0  0  0  0  0  0  0  0  0  0  0
    2.6466    3.1987   -2.0627 H   0  0  0  0  0  0  0  0  0  0  0  0
    3.9493    4.1605   -0.2278 H   0  0  0  0  0  0  0  0  0  0  0  0
    4.8061    2.6593    1.5707 H   0  0  0  0  0  0  0  0  0  0  0  0
    5.0055    0.4281    2.5072 H   0  0  0  0  0  0  0  0  0  0  0  0
    4.5504   -1.9833    2.4353 H   0  0  0  0  0  0  0  0  0  0  0  0
    3.2671   -2.8959    0.6179 H   0  0  0  0  0  0  0  0  0  0  0  0
    2.3837   -1.4462   -1.2035 H   0  0  0  0  0  0  0  0  0  0  0  0
  1  2  1  0
  2  3  1  0
  3  4  2  0
  4  5  1  0
  5  6  2  0
  6  7  1  0
  7  8  2  0
  8  9  1  0
  9 10  2  0
  9 11  1  0
 11 12  1  0
 12 13  2  3
 13 14  1  0
 13 15  1  0
 15 16  1  0
 16 17  2  0
 17 18  1  0
 18 19  2  0
 19 20  1  0
 20 21  2  0
 21 22  1  0
 22 23  2  0
 23 24  1  0
 24 25  2  0
  8  3  1  0
 25 16  1  0
 25 20  1  0
  1 26  1  0
  1 27  1  0
  1 28  1  0
  4 29  1  0
  5 30  1  0
  6 31  1  0
  7 32  1  0
 14 33  1  0
 14 34  1  0
 15 35  1  0
 15 36  1  0
 17 37  1  0
 18 38  1  0
 19 39  1  0
 21 40  1  0
 22 41  1  0
 23 42  1  0
 24 43  1  0
M  END
>  <Batch_No>  (345) 
STK043029

>  <EC50_nM>  (345) 
814

>  <Set>  (345) 
Probe-like

>  <Molecular_Weight>  (345) 
334.36852

>  <ALogP>  (345) 
3.313

$$$$
MMV007474
     RDKit          3D

 85 91  0  0  0  0  0  0  0  0999 V2000
   -0.5724   -2.2552    3.0111 C   0  0  0  0  0  0  0  0  0  0  0  0
   -0.6188   -1.5042    1.8111 O   0  0  0  0  0  0  0  0  0  0  0  0
    0.5627   -1.2924    1.1176 C   0  0  0  0  0  0  0  0  0  0  0  0
    1.7245   -1.8261    1.6342 C   0  0  0  0  0  0  0  0  0  0  0  0
    2.8903   -1.6088    0.9356 C   0  0  0  0  0  0  0  0  0  0  0  0
    4.2158   -2.1593    1.4046 C   0  0  0  0  0  0  0  0  0  0  0  0
    4.8469   -2.7440    0.1597 C   0  0  0  0  0  0  0  0  0  0  0  0
    5.0592   -1.8159   -0.8742 N   0  0  0  0  0  0  0  0  0  0  0  0
    6.4026   -1.6371   -1.3289 C   0  0  0  0  0  0  0  0  0  0  0  0
    4.2156   -0.6707   -0.9680 C   0  0  0  0  0  0  0  0  0  0  0  0
    5.0173    0.5097   -0.4458 C   0  0  0  0  0  0  0  0  0  0  0  0
    4.0592    1.6222   -0.2217 C   0  0  0  0  0  0  0  0  0  0  0  0
    3.6361    2.3518   -1.3147 C   0  0  0  0  0  0  0  0  0  0  0  0
    2.7429    3.3879   -1.1320 C   0  0  0  0  0  0  0  0  0  0  0  0
    2.2906    3.6742    0.1382 C   0  0  0  0  0  0  0  0  0  0  0  0
    1.3769    4.7333    0.3183 O   0  0  0  0  0  0  0  0  0  0  0  0
    0.0027    4.4807    0.1803 C   0  0  0  0  0  0  0  0  0  0  0  0
   -0.4412    3.2732    0.6587 C   0  0  0  0  0  0  0  0  0  0  0  0
   -1.7830    2.9840    0.5431 C   0  0  0  0  0  0  0  0  0  0  0  0
   -2.3651    1.6857    1.0409 C   0  0  0  0  0  0  0  0  0  0  0  0
   -3.2658    1.1599   -0.0380 C   0  0  0  0  0  0  0  0  0  0  0  0
   -4.6092    1.4263    0.3554 N   0  0  0  0  0  0  0  0  0  0  0  0
   -4.9244    1.1989    1.7306 C   0  0  0  0  0  0  0  0  0  0  0  0
   -5.5466    0.8490   -0.5575 C   0  0  0  0  0  0  0  0  0  0  0  0
   -5.4982   -0.6560   -0.3048 C   0  0  0  0  0  0  0  0  0  0  0  0
   -4.1079   -1.1566   -0.4957 C   0  0  0  0  0  0  0  0  0  0  0  0
   -3.9660   -2.4884   -0.8023 C   0  0  0  0  0  0  0  0  0  0  0  0
   -2.7124   -3.0146   -1.0106 C   0  0  0  0  0  0  0  0  0  0  0  0
   -2.5478   -4.3394   -1.3168 O   0  0  0  0  0  0  0  0  0  0  0  0
   -3.7125   -5.1595   -1.4136 C   0  0  0  0  0  0  0  0  0  0  0  0
   -1.6446   -2.1511   -0.8966 C   0  0  0  0  0  0  0  0  0  0  0  0
   -0.3790   -2.7244   -1.1168 O   0  0  0  0  0  0  0  0  0  0  0  0
    0.0867   -2.7256   -2.4651 C   0  0  0  0  0  0  0  0  0  0  0  0
   -1.7882   -0.8062   -0.5869 C   0  0  0  0  0  0  0  0  0  0  0  0
   -0.6252   -0.0678   -0.5087 O   0  0  0  0  0  0  0  0  0  0  0  0
    0.5850   -0.5666   -0.0614 C   0  0  0  0  0  0  0  0  0  0  0  0
    1.7784   -0.3665   -0.7393 C   0  0  0  0  0  0  0  0  0  0  0  0
    2.9551   -0.8906   -0.2433 C   0  0  0  0  0  0  0  0  0  0  0  0
   -3.0553   -0.2691   -0.3744 C   0  0  0  0  0  0  0  0  0  0  0  0
   -2.6772    3.8678   -0.0342 C   0  0  0  0  0  0  0  0  0  0  0  0
   -2.2253    5.0828   -0.5145 C   0  0  0  0  0  0  0  0  0  0  0  0
   -0.8619    5.3798   -0.3985 C   0  0  0  0  0  0  0  0  0  0  0  0
   -0.3685    6.5965   -0.8718 O   0  0  0  0  0  0  0  0  0  0  0  0
    2.7132    2.9464    1.2282 C   0  0  0  0  0  0  0  0  0  0  0  0
    3.6053    1.9108    1.0488 C   0  0  0  0  0  0  0  0  0  0  0  0
   -1.5893   -2.3594    3.4529 H   0  0  0  0  0  0  0  0  0  0  0  0
   -0.2361   -3.2966    2.8348 H   0  0  0  0  0  0  0  0  0  0  0  0
    0.0358   -1.7498    3.7959 H   0  0  0  0  0  0  0  0  0  0  0  0
    1.7350   -2.4011    2.5600 H   0  0  0  0  0  0  0  0  0  0  0  0
    3.9326   -3.0382    2.0302 H   0  0  0  0  0  0  0  0  0  0  0  0
    4.8210   -1.4290    1.9298 H   0  0  0  0  0  0  0  0  0  0  0  0
    4.1682   -3.5408   -0.2290 H   0  0  0  0  0  0  0  0  0  0  0  0
    5.7978   -3.2721    0.4078 H   0  0  0  0  0  0  0  0  0  0  0  0
    6.4259   -1.1467   -2.3361 H   0  0  0  0  0  0  0  0  0  0  0  0
    6.8581   -2.6679   -1.4098 H   0  0  0  0  0  0  0  0  0  0  0  0
    7.0684   -1.0963   -0.6264 H   0  0  0  0  0  0  0  0  0  0  0  0
    4.0065   -0.5202   -2.0706 H   0  0  0  0  0  0  0  0  0  0  0  0
    5.5507    0.3070    0.4814 H   0  0  0  0  0  0  0  0  0  0  0  0
    5.7611    0.8542   -1.1920 H   0  0  0  0  0  0  0  0  0  0  0  0
    3.9875    2.1309   -2.3063 H   0  0  0  0  0  0  0  0  0  0  0  0
    2.3972    3.9733   -1.9733 H   0  0  0  0  0  0  0  0  0  0  0  0
    0.1952    2.5367    1.1198 H   0  0  0  0  0  0  0  0  0  0  0  0
   -2.9503    1.9110    1.9826 H   0  0  0  0  0  0  0  0  0  0  0  0
   -1.4960    1.0441    1.2812 H   0  0  0  0  0  0  0  0  0  0  0  0
   -3.0839    1.7102   -0.9890 H   0  0  0  0  0  0  0  0  0  0  0  0
   -5.9995    0.8581    1.8424 H   0  0  0  0  0  0  0  0  0  0  0  0
   -4.3168    0.4390    2.2441 H   0  0  0  0  0  0  0  0  0  0  0  0
   -4.9245    2.1693    2.3087 H   0  0  0  0  0  0  0  0  0  0  0  0
   -5.1599    1.0059   -1.5871 H   0  0  0  0  0  0  0  0  0  0  0  0
   -6.5731    1.1908   -0.4417 H   0  0  0  0  0  0  0  0  0  0  0  0
   -5.8683   -0.8296    0.7194 H   0  0  0  0  0  0  0  0  0  0  0  0
   -6.2269   -1.1033   -1.0067 H   0  0  0  0  0  0  0  0  0  0  0  0
   -4.8332   -3.1568   -0.8880 H   0  0  0  0  0  0  0  0  0  0  0  0
   -4.3518   -4.6866   -2.1863 H   0  0  0  0  0  0  0  0  0  0  0  0
   -4.2965   -5.1794   -0.4682 H   0  0  0  0  0  0  0  0  0  0  0  0
   -3.4454   -6.1929   -1.7127 H   0  0  0  0  0  0  0  0  0  0  0  0
   -0.1196   -3.6991   -2.9523 H   0  0  0  0  0  0  0  0  0  0  0  0
   -0.2853   -1.8433   -3.0290 H   0  0  0  0  0  0  0  0  0  0  0  0
    1.2001   -2.6263   -2.4861 H   0  0  0  0  0  0  0  0  0  0  0  0
    1.7233    0.2074   -1.6518 H   0  0  0  0  0  0  0  0  0  0  0  0
   -3.7264    3.6231   -0.1161 H   0  0  0  0  0  0  0  0  0  0  0  0
   -2.8916    5.7877   -0.9656 H   0  0  0  0  0  0  0  0  0  0  0  0
   -0.0595    7.3478   -0.2713 H   0  0  0  0  0  0  0  0  0  0  0  0
    2.3424    3.1931    2.2125 H   0  0  0  0  0  0  0  0  0  0  0  0
    3.9569    1.3206    1.8828 H   0  0  0  0  0  0  0  0  0  0  0  0
  1  2  1  0
  2  3  1  0
  3  4  2  0
  4  5  1  0
  5  6  1  0
  6  7  1  0
  7  8  1  0
  8  9  1  0
  8 10  1  0
 10 11  1  0
 11 12  1  0
 12 13  2  0
 13 14  1  0
 14 15  2  0
 15 16  1  0
 16 17  1  0
 17 18  2  0
 18 19  1  0
 19 20  1  0
 20 21  1  0
 21 22  1  0
 22 23  1  0
 22 24  1  0
 24 25  1  0
 25 26  1  0
 26 27  2  0
 27 28  1  0
 28 29  1  0
 29 30  1  0
 28 31  2  0
 31 32  1  0
 32 33  1  0
 31 34  1  0
 34 35  1  0
 35 36  1  0
 36 37  2  0
 37 38  1  0
 34 39  2  0
 19 40  2  0
 40 41  1  0
 41 42  2  0
 42 43  1  0
 15 44  1  0
 44 45  2  0
 36  3  1  0
 38  5  2  0
 38 10  1  0
 45 12  1  0
 42 17  1  0
 39 21  1  0
 39 26  1  0
  1 46  1  0
  1 47  1  0
  1 48  1  0
  4 49  1  0
  6 50  1  0
  6 51  1  0
  7 52  1  0
  7 53  1  0
  9 54  1  0
  9 55  1  0
  9 56  1  0
 10 57  1  0
 11 58  1  0
 11 59  1  0
 13 60  1  0
 14 61  1  0
 18 62  1  0
 20 63  1  0
 20 64  1  0
 21 65  1  0
 23 66  1  0
 23 67  1  0
 23 68  1  0
 24 69  1  0
 24 70  1  0
 25 71  1  0
 25 72  1  0
 27 73  1  0
 30 74  1  0
 30 75  1  0
 30 76  1  0
 33 77  1  0
 33 78  1  0
 33 79  1  0
 37 80  1  0
 40 81  1  0
 41 82  1  0
 43 83  1  0
 44 84  1  0
 45 85  1  0
M  END
>  <Batch_No>  (346) 
STK801360

>  <EC50_nM>  (346) 
1270

>  <Set>  (346) 
Probe-like

>  <Molecular_Weight>  (346) 
608.72329

>  <ALogP>  (346) 
6.992

$$$$
MMV006962
     RDKit          3D

 53 57  0  0  0  0  0  0  0  0999 V2000
  -12.5368    0.3889   -0.8171 Cl  0  0  0  0  0  0  0  0  0  0  0  0
  -10.7935    0.2740   -0.6453 C   0  0  0  0  0  0  0  0  0  0  0  0
  -10.0691    1.3028   -0.0457 C   0  0  0  0  0  0  0  0  0  0  0  0
   -8.7004    1.2189    0.0923 C   0  0  0  0  0  0  0  0  0  0  0  0
   -7.9900    0.1233   -0.3523 C   0  0  0  0  0  0  0  0  0  0  0  0
   -8.7262   -0.8884   -0.9449 C   0  0  0  0  0  0  0  0  0  0  0  0
  -10.0952   -0.8327   -1.0968 C   0  0  0  0  0  0  0  0  0  0  0  0
   -6.5603   -0.0254   -0.2381 C   0  0  0  0  0  0  0  0  0  0  0  0
   -5.9679   -1.0547   -0.6655 O   0  0  0  0  0  0  0  0  0  0  0  0
   -5.7422    0.9726    0.3585 N   0  0  0  0  0  0  0  0  0  0  0  0
   -4.3261    0.7502    0.4347 C   0  0  0  0  0  0  0  0  0  0  0  0
   -3.7998    0.1164    1.5491 C   0  0  0  0  0  0  0  0  0  0  0  0
   -2.4409   -0.1118    1.6512 C   0  0  0  0  0  0  0  0  0  0  0  0
   -1.6457    0.3141    0.6089 C   0  0  0  0  0  0  0  0  0  0  0  0
   -2.1438    0.9480   -0.5129 C   0  0  0  0  0  0  0  0  0  0  0  0
   -3.5183    1.1759   -0.6107 C   0  0  0  0  0  0  0  0  0  0  0  0
   -0.2012    0.0709    0.7187 C   0  0  0  0  0  0  0  0  0  0  0  0
    0.7443    0.4128   -0.1969 N   0  0  0  0  0  0  0  0  0  0  0  0
    1.9522    0.0330    0.2428 C   0  0  0  0  0  0  0  0  0  0  0  0
    3.2125    0.1410   -0.2923 C   0  0  0  0  0  0  0  0  0  0  0  0
    4.3499   -0.3416    0.3679 C   0  0  0  0  0  0  0  0  0  0  0  0
    5.6063   -0.1919   -0.2483 N   0  0  0  0  0  0  0  0  0  0  0  0
    6.8500   -0.5972    0.2322 C   0  0  0  0  0  0  0  0  0  0  0  0
    6.9498   -1.1731    1.3415 O   0  0  0  0  0  0  0  0  0  0  0  0
    8.1172   -0.3926   -0.4950 C   0  0  0  0  0  0  0  0  0  0  0  0
    8.1691    0.2252   -1.7257 C   0  0  0  0  0  0  0  0  0  0  0  0
    9.3706    0.4139   -2.4046 C   0  0  0  0  0  0  0  0  0  0  0  0
   10.5544   -0.0212   -1.8499 C   0  0  0  0  0  0  0  0  0  0  0  0
   12.0868    0.1982   -2.6741 Cl  0  0  0  0  0  0  0  0  0  0  0  0
   10.5304   -0.6427   -0.6190 C   0  0  0  0  0  0  0  0  0  0  0  0
    9.3261   -0.8159    0.0302 C   0  0  0  0  0  0  0  0  0  0  0  0
    4.1173   -0.9284    1.5836 C   0  0  0  0  0  0  0  0  0  0  0  0
    2.8352   -1.0416    2.1345 C   0  0  0  0  0  0  0  0  0  0  0  0
    1.7317   -0.5589    1.4656 C   0  0  0  0  0  0  0  0  0  0  0  0
    0.4198   -0.5294    1.7428 N   0  0  0  0  0  0  0  0  0  0  0  0
  -10.5984    2.1708    0.3109 H   0  0  0  0  0  0  0  0  0  0  0  0
   -8.1657    2.0334    0.5618 H   0  0  0  0  0  0  0  0  0  0  0  0
   -8.2294   -1.7809   -1.3178 H   0  0  0  0  0  0  0  0  0  0  0  0
  -10.6137   -1.6625   -1.5717 H   0  0  0  0  0  0  0  0  0  0  0  0
   -6.1428    1.8567    0.7398 H   0  0  0  0  0  0  0  0  0  0  0  0
   -4.4145   -0.2235    2.3759 H   0  0  0  0  0  0  0  0  0  0  0  0
   -2.0269   -0.6033    2.5139 H   0  0  0  0  0  0  0  0  0  0  0  0
   -1.4819    1.2571   -1.2912 H   0  0  0  0  0  0  0  0  0  0  0  0
   -3.9056    1.6725   -1.4901 H   0  0  0  0  0  0  0  0  0  0  0  0
    3.2832    0.6251   -1.2643 H   0  0  0  0  0  0  0  0  0  0  0  0
    5.6028    0.2906   -1.1982 H   0  0  0  0  0  0  0  0  0  0  0  0
    7.2899    0.5940   -2.2276 H   0  0  0  0  0  0  0  0  0  0  0  0
    9.3909    0.9032   -3.3741 H   0  0  0  0  0  0  0  0  0  0  0  0
   11.4323   -1.0064   -0.1330 H   0  0  0  0  0  0  0  0  0  0  0  0
    9.3306   -1.3068    0.9964 H   0  0  0  0  0  0  0  0  0  0  0  0
    4.9076   -1.3311    2.1752 H   0  0  0  0  0  0  0  0  0  0  0  0
    2.6851   -1.5148    3.1053 H   0  0  0  0  0  0  0  0  0  0  0  0
   -0.0099   -0.9069    2.5966 H   0  0  0  0  0  0  0  0  0  0  0  0
  1  2  1  0
  2  3  2  0
  3  4  1  0
  4  5  2  0
  5  6  1  0
  6  7  2  0
  5  8  1  0
  8  9  2  0
  8 10  1  0
 10 11  1  0
 11 12  2  0
 12 13  1  0
 13 14  2  0
 14 15  1  0
 15 16  2  0
 14 17  1  0
 17 18  2  0
 18 19  1  0
 19 20  2  0
 20 21  1  0
 21 22  1  0
 22 23  1  0
 23 24  2  0
 23 25  1  0
 25 26  2  0
 26 27  1  0
 27 28  2  0
 28 29  1  0
 28 30  1  0
 30 31  2  0
 21 32  2  0
 32 33  1  0
 33 34  2  0
 34 35  1  0
  7  2  1  0
 16 11  1  0
 35 17  1  0
 34 19  1  0
 31 25  1  0
  3 36  1  0
  4 37  1  0
  6 38  1  0
  7 39  1  0
 10 40  1  0
 12 41  1  0
 13 42  1  0
 15 43  1  0
 16 44  1  0
 20 45  1  0
 22 46  1  0
 26 47  1  0
 27 48  1  0
 30 49  1  0
 31 50  1  0
 32 51  1  0
 33 52  1  0
 35 53  1  0
M  END
>  <Batch_No>  (347) 
STK527858

>  <EC50_nM>  (347) 
ND

>  <Set>  (347) 
Probe-like

>  <Molecular_Weight>  (347) 
501.36342

>  <ALogP>  (347) 
6.168

$$$$
MMV665813
     RDKit          3D

 45 47  0  0  0  0  0  0  0  0999 V2000
   -0.6663    5.5077   -0.9134 C   0  0  0  0  0  0  0  0  0  0  0  0
   -1.2936    5.1775    0.4439 C   0  0  0  0  0  0  0  0  0  0  0  0
   -1.8449    3.8556    0.4412 O   0  0  0  0  0  0  0  0  0  0  0  0
   -0.9597    2.7757    0.1821 C   0  0  0  0  0  0  0  0  0  0  0  0
    0.1903    3.1898   -0.0061 O   0  0  0  0  0  0  0  0  0  0  0  0
   -1.5210    1.4621    0.1853 C   0  0  0  0  0  0  0  0  0  0  0  0
   -2.9222    1.3843    0.2978 C   0  0  0  0  0  0  0  0  0  0  0  0
   -3.6063    0.2577    0.2561 N   0  0  0  0  0  0  0  0  0  0  0  0
   -2.9434   -0.8819    0.0986 C   0  0  0  0  0  0  0  0  0  0  0  0
   -3.7104   -2.0382    0.0630 C   0  0  0  0  0  0  0  0  0  0  0  0
   -3.1221   -3.2674   -0.0928 C   0  0  0  0  0  0  0  0  0  0  0  0
   -1.7554   -3.2992   -0.2104 C   0  0  0  0  0  0  0  0  0  0  0  0
   -1.1477   -4.5410   -0.3689 O   0  0  0  0  0  0  0  0  0  0  0  0
   -1.9605   -5.6939   -0.4002 C   0  0  0  0  0  0  0  0  0  0  0  0
   -0.9879   -2.1294   -0.1738 C   0  0  0  0  0  0  0  0  0  0  0  0
   -1.5750   -0.8757   -0.0163 C   0  0  0  0  0  0  0  0  0  0  0  0
   -0.8053    0.2976    0.0235 C   0  0  0  0  0  0  0  0  0  0  0  0
    0.5799    0.1796   -0.0250 N   0  0  0  0  0  0  0  0  0  0  0  0
    1.6993    1.0395    0.1313 C   0  0  0  0  0  0  0  0  0  0  0  0
    2.9629    0.1364    0.1286 C   0  0  0  0  0  0  0  0  0  0  0  0
    3.5824   -0.1539   -1.0636 C   0  0  0  0  0  0  0  0  0  0  0  0
    4.7053   -0.9523   -1.0990 C   0  0  0  0  0  0  0  0  0  0  0  0
    5.1858   -1.4465    0.0772 C   0  0  0  0  0  0  0  0  0  0  0  0
    4.5642   -1.1563    1.2813 C   0  0  0  0  0  0  0  0  0  0  0  0
    3.4242   -0.3485    1.3380 C   0  0  0  0  0  0  0  0  0  0  0  0
   -1.0293    4.7198   -1.6145 H   0  0  0  0  0  0  0  0  0  0  0  0
   -0.9830    6.4864   -1.2822 H   0  0  0  0  0  0  0  0  0  0  0  0
    0.4464    5.4275   -0.7940 H   0  0  0  0  0  0  0  0  0  0  0  0
   -2.1703    5.8397    0.5251 H   0  0  0  0  0  0  0  0  0  0  0  0
   -0.5619    5.3493    1.2287 H   0  0  0  0  0  0  0  0  0  0  0  0
   -3.5207    2.3031    0.4301 H   0  0  0  0  0  0  0  0  0  0  0  0
   -4.7747   -1.9946    0.1565 H   0  0  0  0  0  0  0  0  0  0  0  0
   -3.7410   -4.1425   -0.1165 H   0  0  0  0  0  0  0  0  0  0  0  0
   -1.3915   -6.6216   -0.4295 H   0  0  0  0  0  0  0  0  0  0  0  0
   -2.7239   -5.6577   -1.2281 H   0  0  0  0  0  0  0  0  0  0  0  0
   -2.5820   -5.7169    0.5393 H   0  0  0  0  0  0  0  0  0  0  0  0
    0.0600   -2.2899   -0.2730 H   0  0  0  0  0  0  0  0  0  0  0  0
    0.9113   -0.8214   -0.2788 H   0  0  0  0  0  0  0  0  0  0  0  0
    1.9405    1.6993   -0.7236 H   0  0  0  0  0  0  0  0  0  0  0  0
    1.7536    1.5794    1.1099 H   0  0  0  0  0  0  0  0  0  0  0  0
    3.1598    0.2663   -1.9848 H   0  0  0  0  0  0  0  0  0  0  0  0
    5.1549   -1.1488   -2.0741 H   0  0  0  0  0  0  0  0  0  0  0  0
    6.0760   -2.0776    0.0346 H   0  0  0  0  0  0  0  0  0  0  0  0
    4.9728   -1.5665    2.2026 H   0  0  0  0  0  0  0  0  0  0  0  0
    2.9304   -0.1127    2.2540 H   0  0  0  0  0  0  0  0  0  0  0  0
  1  2  1  0
  2  3  1  0
  3  4  1  0
  4  5  2  0
  4  6  1  0
  6  7  2  0
  7  8  1  0
  8  9  2  0
  9 10  1  0
 10 11  2  0
 11 12  1  0
 12 13  1  0
 13 14  1  0
 12 15  2  0
 15 16  1  0
 16 17  2  0
 17 18  1  0
 18 19  1  0
 19 20  1  0
 20 21  2  0
 21 22  1  0
 22 23  2  0
 23 24  1  0
 24 25  2  0
 17  6  1  0
 16  9  1  0
 25 20  1  0
  1 26  1  0
  1 27  1  0
  1 28  1  0
  2 29  1  0
  2 30  1  0
  7 31  1  0
 10 32  1  0
 11 33  1  0
 14 34  1  0
 14 35  1  0
 14 36  1  0
 15 37  1  0
 18 38  1  0
 19 39  1  0
 19 40  1  0
 21 41  1  0
 22 42  1  0
 23 43  1  0
 24 44  1  0
 25 45  1  0
M  END
>  <Batch_No>  (348) 
OSSK_089987

>  <EC50_nM>  (348) 
nan

>  <Set>  (348) 
Probe-like

>  <Molecular_Weight>  (348) 
336.3844

>  <ALogP>  (348) 
3.596

$$$$
MMV080034
     RDKit          3D

 30 32  0  0  0  0  0  0  0  0999 V2000
   -0.6658   -1.9370   -0.7493 N   0  0  0  0  0  0  0  0  0  0  0  0
   -2.0008   -1.8170   -0.6535 C   0  0  0  0  0  0  0  0  0  0  0  0
   -2.8279   -2.8987   -1.0025 N   0  0  0  0  0  0  0  0  0  0  0  0
   -2.5743   -0.6494   -0.2182 C   0  0  0  0  0  0  0  0  0  0  0  0
   -1.7382    0.3869    0.1144 C   0  0  0  0  0  0  0  0  0  0  0  0
   -2.2476    1.5806    0.5565 C   0  0  0  0  0  0  0  0  0  0  0  0
   -3.6081    1.7807    0.6816 C   0  0  0  0  0  0  0  0  0  0  0  0
   -4.4509    0.7530    0.3523 C   0  0  0  0  0  0  0  0  0  0  0  0
   -3.9325   -0.4573   -0.0959 C   0  0  0  0  0  0  0  0  0  0  0  0
   -0.4295    0.2051   -0.0021 N   0  0  0  0  0  0  0  0  0  0  0  0
    0.1842   -0.9128   -0.4216 C   0  0  0  0  0  0  0  0  0  0  0  0
    1.5559   -1.1089   -0.5457 N   0  0  0  0  0  0  0  0  0  0  0  0
    2.5909   -0.1902   -0.2627 C   0  0  0  0  0  0  0  0  0  0  0  0
    2.4032    1.0898    0.1969 C   0  0  0  0  0  0  0  0  0  0  0  0
    3.4717    1.9559    0.4600 C   0  0  0  0  0  0  0  0  0  0  0  0
    4.7694    1.5389    0.2608 C   0  0  0  0  0  0  0  0  0  0  0  0
    4.9804    0.2578   -0.2000 C   0  0  0  0  0  0  0  0  0  0  0  0
    6.2549   -0.1672   -0.4011 F   0  0  0  0  0  0  0  0  0  0  0  0
    3.9170   -0.5780   -0.4527 C   0  0  0  0  0  0  0  0  0  0  0  0
   -2.6655   -3.5410   -1.8102 H   0  0  0  0  0  0  0  0  0  0  0  0
   -3.6740   -3.0913   -0.4226 H   0  0  0  0  0  0  0  0  0  0  0  0
   -1.5376    2.3616    0.8039 H   0  0  0  0  0  0  0  0  0  0  0  0
   -3.9916    2.7483    1.0388 H   0  0  0  0  0  0  0  0  0  0  0  0
   -5.5108    0.9073    0.4492 H   0  0  0  0  0  0  0  0  0  0  0  0
   -4.5910   -1.2677   -0.3559 H   0  0  0  0  0  0  0  0  0  0  0  0
    1.8767   -2.0643   -0.8960 H   0  0  0  0  0  0  0  0  0  0  0  0
    1.4366    1.4765    0.3721 H   0  0  0  0  0  0  0  0  0  0  0  0
    3.2697    2.9735    0.8275 H   0  0  0  0  0  0  0  0  0  0  0  0
    5.5635    2.2412    0.4771 H   0  0  0  0  0  0  0  0  0  0  0  0
    4.1721   -1.5762   -0.8154 H   0  0  0  0  0  0  0  0  0  0  0  0
  1  2  2  0
  2  3  1  0
  2  4  1  0
  4  5  2  0
  5  6  1  0
  6  7  2  0
  7  8  1  0
  8  9  2  0
  5 10  1  0
 10 11  2  0
 11 12  1  0
 12 13  1  0
 13 14  2  0
 14 15  1  0
 15 16  2  0
 16 17  1  0
 17 18  1  0
 17 19  2  0
 11  1  1  0
  9  4  1  0
 19 13  1  0
  3 20  1  0
  3 21  1  0
  6 22  1  0
  7 23  1  0
  8 24  1  0
  9 25  1  0
 12 26  1  0
 14 27  1  0
 15 28  1  0
 16 29  1  0
 19 30  1  0
M  END
>  <Batch_No>  (349) 
OSSK_578033

>  <EC50_nM>  (349) 
1000

>  <Set>  (349) 
Probe-like

>  <Molecular_Weight>  (349) 
254.26234

>  <ALogP>  (349) 
2.82

$$$$
MMV019199
     RDKit          3D

 34 36  0  0  0  0  0  0  0  0999 V2000
    6.0109    0.8445   -0.1310 C   0  0  0  0  0  0  0  0  0  0  0  0
    5.4023   -0.3897    0.1048 O   0  0  0  0  0  0  0  0  0  0  0  0
    4.0408   -0.5221    0.1017 C   0  0  0  0  0  0  0  0  0  0  0  0
    3.5197   -1.7820    0.3481 C   0  0  0  0  0  0  0  0  0  0  0  0
    2.1885   -2.0670    0.3787 C   0  0  0  0  0  0  0  0  0  0  0  0
    1.2897   -1.0326    0.1476 C   0  0  0  0  0  0  0  0  0  0  0  0
    1.7695    0.2535   -0.1052 C   0  0  0  0  0  0  0  0  0  0  0  0
    0.8119    1.2791   -0.3378 N   0  0  0  0  0  0  0  0  0  0  0  0
   -0.5611    0.9231   -0.2203 C   0  0  0  0  0  0  0  0  0  0  0  0
   -1.1489    1.2123    0.9737 N   0  0  0  0  0  0  0  0  0  0  0  0
   -2.4569    0.9099    1.2092 C   0  0  0  0  0  0  0  0  0  0  0  0
   -3.0096    1.2381    2.4680 N   0  0  0  0  0  0  0  0  0  0  0  0
   -3.1624    0.3000    0.1929 C   0  0  0  0  0  0  0  0  0  0  0  0
   -4.4852   -0.0139    0.4201 C   0  0  0  0  0  0  0  0  0  0  0  0
   -5.2471   -0.6352   -0.5718 C   0  0  0  0  0  0  0  0  0  0  0  0
   -4.6465   -0.9306   -1.7908 C   0  0  0  0  0  0  0  0  0  0  0  0
   -3.3102   -0.6069   -2.0051 C   0  0  0  0  0  0  0  0  0  0  0  0
   -2.5646    0.0082   -1.0163 C   0  0  0  0  0  0  0  0  0  0  0  0
   -1.2516    0.3287   -1.2104 N   0  0  0  0  0  0  0  0  0  0  0  0
    3.1362    0.4853   -0.1234 C   0  0  0  0  0  0  0  0  0  0  0  0
    6.1154    1.0012   -1.2295 H   0  0  0  0  0  0  0  0  0  0  0  0
    7.0165    0.9135    0.3485 H   0  0  0  0  0  0  0  0  0  0  0  0
    5.3846    1.6641    0.2913 H   0  0  0  0  0  0  0  0  0  0  0  0
    4.2060   -2.6146    0.5345 H   0  0  0  0  0  0  0  0  0  0  0  0
    1.8280   -3.0628    0.5736 H   0  0  0  0  0  0  0  0  0  0  0  0
    0.2421   -1.2684    0.1750 H   0  0  0  0  0  0  0  0  0  0  0  0
    1.0796    2.2580   -0.5837 H   0  0  0  0  0  0  0  0  0  0  0  0
   -3.5197    0.4898    2.9811 H   0  0  0  0  0  0  0  0  0  0  0  0
   -2.9114    2.2147    2.8800 H   0  0  0  0  0  0  0  0  0  0  0  0
   -4.9176    0.2372    1.3958 H   0  0  0  0  0  0  0  0  0  0  0  0
   -6.2905   -0.8746   -0.3727 H   0  0  0  0  0  0  0  0  0  0  0  0
   -5.2271   -1.4137   -2.5682 H   0  0  0  0  0  0  0  0  0  0  0  0
   -2.8071   -0.8204   -2.9393 H   0  0  0  0  0  0  0  0  0  0  0  0
    3.4757    1.4735   -0.3189 H   0  0  0  0  0  0  0  0  0  0  0  0
  1  2  1  0
  2  3  1  0
  3  4  2  0
  4  5  1  0
  5  6  2  0
  6  7  1  0
  7  8  1  0
  8  9  1  0
  9 10  2  0
 10 11  1  0
 11 12  1  0
 11 13  2  0
 13 14  1  0
 14 15  2  0
 15 16  1  0
 16 17  2  0
 17 18  1  0
 18 19  2  0
  7 20  2  0
 20  3  1  0
 19  9  1  0
 18 13  1  0
  1 21  1  0
  1 22  1  0
  1 23  1  0
  4 24  1  0
  5 25  1  0
  6 26  1  0
  8 27  1  0
 12 28  1  0
 12 29  1  0
 14 30  1  0
 15 31  1  0
 16 32  1  0
 17 33  1  0
 20 34  1  0
M  END
>  <Batch_No>  (350) 
OSSL_102403

>  <EC50_nM>  (350) 
4000

>  <Set>  (350) 
Probe-like

>  <Molecular_Weight>  (350) 
266.29786

>  <ALogP>  (350) 
2.598

$$$$
MMV396652
     RDKit          3D

 63 67  0  0  0  0  0  0  0  0999 V2000
   -1.2127   -1.9042    0.8320 C   0  0  0  0  0  0  0  0  0  0  0  0
    0.0713   -1.5422    0.1016 C   0  0  0  0  0  0  0  0  0  0  0  0
    0.2829   -2.2450   -1.1340 C   0  0  0  0  0  0  0  0  0  0  0  0
   -0.1477   -1.9595   -2.3878 C   0  0  0  0  0  0  0  0  0  0  0  0
    0.1748   -2.7629   -3.3925 C   0  0  0  0  0  0  0  0  0  0  0  0
    0.9450   -3.8715   -3.1217 C   0  0  0  0  0  0  0  0  0  0  0  0
    1.2642   -3.8086   -1.2879 S   0  0  0  0  0  0  0  0  0  0  0  0
    0.2178   -0.1135    0.0044 N   0  0  0  0  0  0  0  0  0  0  0  0
    1.4089    0.2559   -0.7376 C   0  0  0  0  0  0  0  0  0  0  0  0
    1.8634    1.6586   -0.3064 C   0  0  0  0  0  0  0  0  0  0  0  0
    2.4529    1.4506    1.0141 N   0  0  0  0  0  0  0  0  0  0  0  0
    3.5903    2.1160    1.4828 C   0  0  0  0  0  0  0  0  0  0  0  0
    4.2434    3.0686    0.7343 C   0  0  0  0  0  0  0  0  0  0  0  0
    5.3825    3.7342    1.2005 C   0  0  0  0  0  0  0  0  0  0  0  0
    5.8402    3.3949    2.4672 C   0  0  0  0  0  0  0  0  0  0  0  0
    5.2243    2.4596    3.2390 C   0  0  0  0  0  0  0  0  0  0  0  0
    4.0931    1.8234    2.7319 C   0  0  0  0  0  0  0  0  0  0  0  0
    0.3278    0.4610    1.3555 C   0  0  0  0  0  0  0  0  0  0  0  0
    1.7570    0.4676    1.8531 C   0  0  0  0  0  0  0  0  0  0  0  0
   -1.3315   -3.0519    1.5251 C   0  0  0  0  0  0  0  0  0  0  0  0
   -0.2301   -4.0965    1.6621 C   0  0  0  0  0  0  0  0  0  0  0  0
   -2.5404   -3.2838    2.1504 C   0  0  0  0  0  0  0  0  0  0  0  0
   -2.9411   -4.4716    2.9826 C   0  0  0  0  0  0  0  0  0  0  0  0
   -3.5433   -1.8898    1.7780 S   0  0  0  0  0  0  0  0  0  0  0  0
   -2.2724   -1.0593    0.7910 C   0  0  0  0  0  0  0  0  0  0  0  0
   -2.5478    0.1736    0.2061 N   0  0  0  0  0  0  0  0  0  0  0  0
   -3.1111    0.2129   -1.0930 C   0  0  0  0  0  0  0  0  0  0  0  0
   -3.4364    1.4485   -1.7983 C   0  0  0  0  0  0  0  0  0  0  0  0
   -3.9656    1.3739   -3.0700 C   0  0  0  0  0  0  0  0  0  0  0  0
   -4.2873    2.5381   -3.7685 C   0  0  0  0  0  0  0  0  0  0  0  0
   -4.0953    3.7930   -3.2310 C   0  0  0  0  0  0  0  0  0  0  0  0
   -3.5672    3.8654   -1.9614 C   0  0  0  0  0  0  0  0  0  0  0  0
   -3.2467    2.7025   -1.2659 C   0  0  0  0  0  0  0  0  0  0  0  0
   -3.3667   -0.8636   -1.7234 O   0  0  0  0  0  0  0  0  0  0  0  0
    0.8872   -1.8586    0.8204 H   0  0  0  0  0  0  0  0  0  0  0  0
   -0.7718   -1.0366   -2.5479 H   0  0  0  0  0  0  0  0  0  0  0  0
   -0.1455   -2.5875   -4.4461 H   0  0  0  0  0  0  0  0  0  0  0  0
    1.3388   -4.6660   -3.7331 H   0  0  0  0  0  0  0  0  0  0  0  0
    2.2769   -0.4076   -0.5385 H   0  0  0  0  0  0  0  0  0  0  0  0
    1.1439    0.3464   -1.8028 H   0  0  0  0  0  0  0  0  0  0  0  0
    2.5798    2.0551   -1.0292 H   0  0  0  0  0  0  0  0  0  0  0  0
    1.0318    2.3643   -0.2185 H   0  0  0  0  0  0  0  0  0  0  0  0
    3.9159    3.3549   -0.2465 H   0  0  0  0  0  0  0  0  0  0  0  0
    5.8862    4.4787    0.6048 H   0  0  0  0  0  0  0  0  0  0  0  0
    6.7277    3.8815    2.8863 H   0  0  0  0  0  0  0  0  0  0  0  0
    5.6189    2.2278    4.2233 H   0  0  0  0  0  0  0  0  0  0  0  0
    3.6506    1.0860    3.3996 H   0  0  0  0  0  0  0  0  0  0  0  0
   -0.0203    1.4910    1.2958 H   0  0  0  0  0  0  0  0  0  0  0  0
   -0.2622   -0.1309    2.0944 H   0  0  0  0  0  0  0  0  0  0  0  0
    2.2765   -0.4820    1.7069 H   0  0  0  0  0  0  0  0  0  0  0  0
    1.7059    0.7873    2.9109 H   0  0  0  0  0  0  0  0  0  0  0  0
    0.7621   -3.6627    1.6502 H   0  0  0  0  0  0  0  0  0  0  0  0
   -0.4488   -4.8684    0.9250 H   0  0  0  0  0  0  0  0  0  0  0  0
   -0.3201   -4.5877    2.6789 H   0  0  0  0  0  0  0  0  0  0  0  0
   -2.5252   -5.4014    2.5809 H   0  0  0  0  0  0  0  0  0  0  0  0
   -2.7430   -4.2964    4.0488 H   0  0  0  0  0  0  0  0  0  0  0  0
   -4.0541   -4.5324    2.8783 H   0  0  0  0  0  0  0  0  0  0  0  0
   -2.3724    1.1028    0.6629 H   0  0  0  0  0  0  0  0  0  0  0  0
   -4.1561    0.4338   -3.5845 H   0  0  0  0  0  0  0  0  0  0  0  0
   -4.7090    2.4669   -4.7840 H   0  0  0  0  0  0  0  0  0  0  0  0
   -4.3328    4.7118   -3.7428 H   0  0  0  0  0  0  0  0  0  0  0  0
   -3.3938    4.8320   -1.4867 H   0  0  0  0  0  0  0  0  0  0  0  0
   -2.8437    2.8242   -0.2922 H   0  0  0  0  0  0  0  0  0  0  0  0
  1  2  1  0
  2  3  1  0
  3  4  2  0
  4  5  1  0
  5  6  2  0
  6  7  1  0
  2  8  1  0
  8  9  1  0
  9 10  1  0
 10 11  1  0
 11 12  1  0
 12 13  2  0
 13 14  1  0
 14 15  2  0
 15 16  1  0
 16 17  2  0
  8 18  1  0
 18 19  1  0
  1 20  1  0
 20 21  1  0
 20 22  2  0
 22 23  1  0
 22 24  1  0
 24 25  1  0
 25 26  1  0
 26 27  1  0
 27 28  1  0
 28 29  2  0
 29 30  1  0
 30 31  2  0
 31 32  1  0
 32 33  2  0
 27 34  2  0
 25  1  2  0
  7  3  1  0
 19 11  1  0
 17 12  1  0
 33 28  1  0
  2 35  1  0
  4 36  1  0
  5 37  1  0
  6 38  1  0
  9 39  1  0
  9 40  1  0
 10 41  1  0
 10 42  1  0
 13 43  1  0
 14 44  1  0
 15 45  1  0
 16 46  1  0
 17 47  1  0
 18 48  1  0
 18 49  1  0
 19 50  1  0
 19 51  1  0
 21 52  1  0
 21 53  1  0
 21 54  1  0
 23 55  1  0
 23 56  1  0
 23 57  1  0
 26 58  1  0
 29 59  1  0
 30 60  1  0
 31 61  1  0
 32 62  1  0
 33 63  1  0
M  END
>  <Batch_No>  (351) 
OSSK_407274

>  <EC50_nM>  (351) 
1180

>  <Set>  (351) 
Probe-like

>  <Molecular_Weight>  (351) 
487.67936

>  <ALogP>  (351) 
6.194

$$$$
MMV000704
     RDKit          3D

 59 62  0  0  0  0  0  0  0  0999 V2000
   -3.0015   -0.0134   -0.0675 C   0  0  0  0  0  0  0  0  0  0  0  0
   -2.1676    0.1293    1.0499 N   0  0  0  0  0  0  0  0  0  0  0  0
   -0.7568    0.0495    0.8882 C   0  0  0  0  0  0  0  0  0  0  0  0
   -0.2044   -0.1655   -0.3446 C   0  0  0  0  0  0  0  0  0  0  0  0
    1.1510   -0.2483   -0.5396 C   0  0  0  0  0  0  0  0  0  0  0  0
    0.1121    0.1844    1.9605 C   0  0  0  0  0  0  0  0  0  0  0  0
    1.4861    0.1001    1.7607 C   0  0  0  0  0  0  0  0  0  0  0  0
    2.0426   -0.1167    0.5173 C   0  0  0  0  0  0  0  0  0  0  0  0
    3.4522   -0.1982    0.3455 N   0  0  0  0  0  0  0  0  0  0  0  0
    4.3944   -0.0580    1.4414 C   0  0  0  0  0  0  0  0  0  0  0  0
    5.7354    0.4651    0.9740 C   0  0  0  0  0  0  0  0  0  0  0  0
    3.9998   -0.4307   -0.9698 C   0  0  0  0  0  0  0  0  0  0  0  0
    5.3776   -1.0438   -0.8637 C   0  0  0  0  0  0  0  0  0  0  0  0
    6.3025   -0.2544   -0.1200 N   0  0  0  0  0  0  0  0  0  0  0  0
    7.0862    0.6429   -0.9453 C   0  0  0  0  0  0  0  0  0  0  0  0
   -3.5120   -1.2158   -0.5179 C   0  0  0  0  0  0  0  0  0  0  0  0
   -4.3292   -1.2476   -1.6357 C   0  0  0  0  0  0  0  0  0  0  0  0
   -4.8412   -2.4593   -2.0861 C   0  0  0  0  0  0  0  0  0  0  0  0
   -4.5227   -3.6159   -1.4054 C   0  0  0  0  0  0  0  0  0  0  0  0
   -3.7032   -3.5585   -0.2898 C   0  0  0  0  0  0  0  0  0  0  0  0
   -3.4122   -4.7494    0.3603 O   0  0  0  0  0  0  0  0  0  0  0  0
   -2.5914   -4.8025    1.5007 C   0  0  0  0  0  0  0  0  0  0  0  0
   -3.1782   -2.3626    0.1818 C   0  0  0  0  0  0  0  0  0  0  0  0
   -4.6636   -0.1433   -2.3272 N   0  0  0  0  0  0  0  0  0  0  0  0
   -4.1692    1.0326   -1.8934 C   0  0  0  0  0  0  0  0  0  0  0  0
   -3.3459    1.1294   -0.7810 C   0  0  0  0  0  0  0  0  0  0  0  0
   -2.8319    2.4244   -0.3449 C   0  0  0  0  0  0  0  0  0  0  0  0
   -3.1765    3.5638   -1.0577 O   0  0  0  0  0  0  0  0  0  0  0  0
   -2.6976    4.8589   -0.6701 C   0  0  0  0  0  0  0  0  0  0  0  0
   -3.2313    5.0640    0.7538 C   0  0  0  0  0  0  0  0  0  0  0  0
   -2.0966    2.4760    0.6558 O   0  0  0  0  0  0  0  0  0  0  0  0
   -2.5863    0.2927    1.9909 H   0  0  0  0  0  0  0  0  0  0  0  0
   -0.8746   -0.2712   -1.1818 H   0  0  0  0  0  0  0  0  0  0  0  0
    1.5080   -0.4171   -1.5271 H   0  0  0  0  0  0  0  0  0  0  0  0
   -0.3111    0.3578    2.9605 H   0  0  0  0  0  0  0  0  0  0  0  0
    2.0913    0.2164    2.6500 H   0  0  0  0  0  0  0  0  0  0  0  0
    4.4636   -1.0350    1.9426 H   0  0  0  0  0  0  0  0  0  0  0  0
    3.9883    0.7352    2.1121 H   0  0  0  0  0  0  0  0  0  0  0  0
    6.4084    0.4461    1.8510 H   0  0  0  0  0  0  0  0  0  0  0  0
    5.5701    1.5404    0.7017 H   0  0  0  0  0  0  0  0  0  0  0  0
    3.3958   -1.1875   -1.5519 H   0  0  0  0  0  0  0  0  0  0  0  0
    4.0396    0.4801   -1.5905 H   0  0  0  0  0  0  0  0  0  0  0  0
    5.7726   -1.2013   -1.8809 H   0  0  0  0  0  0  0  0  0  0  0  0
    5.2475   -2.0320   -0.3655 H   0  0  0  0  0  0  0  0  0  0  0  0
    6.8743    1.7025   -0.6916 H   0  0  0  0  0  0  0  0  0  0  0  0
    8.1730    0.4839   -0.8266 H   0  0  0  0  0  0  0  0  0  0  0  0
    6.7496    0.5263   -2.0001 H   0  0  0  0  0  0  0  0  0  0  0  0
   -5.4851   -2.4770   -2.9684 H   0  0  0  0  0  0  0  0  0  0  0  0
   -4.9064   -4.5533   -1.7368 H   0  0  0  0  0  0  0  0  0  0  0  0
   -2.6752   -5.8411    1.9040 H   0  0  0  0  0  0  0  0  0  0  0  0
   -1.5568   -4.6333    1.1986 H   0  0  0  0  0  0  0  0  0  0  0  0
   -2.8686   -4.0910    2.2804 H   0  0  0  0  0  0  0  0  0  0  0  0
   -2.5373   -2.3078    1.0522 H   0  0  0  0  0  0  0  0  0  0  0  0
   -4.3938    1.9620   -2.3972 H   0  0  0  0  0  0  0  0  0  0  0  0
   -1.6088    4.9091   -0.7123 H   0  0  0  0  0  0  0  0  0  0  0  0
   -3.1680    5.6334   -1.2803 H   0  0  0  0  0  0  0  0  0  0  0  0
   -3.3288    6.1301    1.0096 H   0  0  0  0  0  0  0  0  0  0  0  0
   -2.5032    4.6253    1.4822 H   0  0  0  0  0  0  0  0  0  0  0  0
   -4.1851    4.5695    0.9315 H   0  0  0  0  0  0  0  0  0  0  0  0
  1  2  1  0
  2  3  1  0
  3  4  2  0
  4  5  1  0
  3  6  1  0
  6  7  2  0
  7  8  1  0
  8  9  1  0
  9 10  1  0
 10 11  1  0
  9 12  1  0
 12 13  1  0
 13 14  1  0
 14 15  1  0
  1 16  1  0
 16 17  1  0
 17 18  2  0
 18 19  1  0
 19 20  2  0
 20 21  1  0
 21 22  1  0
 20 23  1  0
 17 24  1  0
 24 25  2  0
 25 26  1  0
 26 27  1  0
 27 28  1  0
 28 29  1  0
 29 30  1  0
 27 31  2  0
 26  1  2  0
  8  5  2  0
 14 11  1  0
 23 16  2  0
  2 32  1  0
  4 33  1  0
  5 34  1  0
  6 35  1  0
  7 36  1  0
 10 37  1  0
 10 38  1  0
 11 39  1  0
 11 40  1  0
 12 41  1  0
 12 42  1  0
 13 43  1  0
 13 44  1  0
 15 45  1  0
 15 46  1  0
 15 47  1  0
 18 48  1  0
 19 49  1  0
 22 50  1  0
 22 51  1  0
 22 52  1  0
 23 53  1  0
 25 54  1  0
 29 55  1  0
 29 56  1  0
 30 57  1  0
 30 58  1  0
 30 59  1  0
M  END
>  <Batch_No>  (352) 
8011-6716

>  <EC50_nM>  (352) 
1100

>  <Set>  (352) 
Probe-like

>  <Molecular_Weight>  (352) 
420.50411

>  <ALogP>  (352) 
3.873

$$$$
MMV396635
     RDKit          3D

 56 60  0  0  0  0  0  0  0  0999 V2000
    4.0749   -0.3734   -0.1220 N   0  0  0  0  0  0  0  0  0  0  0  0
    4.0952    0.6810    0.7346 C   0  0  0  0  0  0  0  0  0  0  0  0
    5.2825    1.2409    1.0493 N   0  0  0  0  0  0  0  0  0  0  0  0
    6.4317    0.7784    0.5355 C   0  0  0  0  0  0  0  0  0  0  0  0
    7.6534    1.4404    0.9292 C   0  0  0  0  0  0  0  0  0  0  0  0
    7.9637    2.4835    1.7408 C   0  0  0  0  0  0  0  0  0  0  0  0
    9.2343    2.8517    1.8894 C   0  0  0  0  0  0  0  0  0  0  0  0
   10.2273    2.1983    1.2400 C   0  0  0  0  0  0  0  0  0  0  0  0
   11.9229    2.4065    1.2080 Cl  0  0  0  0  0  0  0  0  0  0  0  0
    9.3222    0.8807    0.2758 S   0  0  0  0  0  0  0  0  0  0  0  0
    6.4603   -0.2721   -0.3238 C   0  0  0  0  0  0  0  0  0  0  0  0
    5.2303   -0.8540   -0.6513 C   0  0  0  0  0  0  0  0  0  0  0  0
    5.1888   -2.0005   -1.5799 C   0  0  0  0  0  0  0  0  0  0  0  0
    6.3856   -2.7281   -1.5333 F   0  0  0  0  0  0  0  0  0  0  0  0
    5.1038   -1.5032   -2.8666 F   0  0  0  0  0  0  0  0  0  0  0  0
    4.1201   -2.8218   -1.2668 F   0  0  0  0  0  0  0  0  0  0  0  0
    2.8157    0.9809    1.1315 C   0  0  0  0  0  0  0  0  0  0  0  0
    2.0069    0.0649    0.4817 C   0  0  0  0  0  0  0  0  0  0  0  0
    0.5731    0.0196    0.6159 C   0  0  0  0  0  0  0  0  0  0  0  0
   -0.0003    0.8574    1.3671 O   0  0  0  0  0  0  0  0  0  0  0  0
   -0.2304   -0.9327   -0.0643 N   0  0  0  0  0  0  0  0  0  0  0  0
   -1.6574   -0.9400    0.1002 C   0  0  0  0  0  0  0  0  0  0  0  0
   -2.3903   -0.6602   -1.1943 C   0  0  0  0  0  0  0  0  0  0  0  0
   -3.8507   -0.4266   -0.8814 C   0  0  0  0  0  0  0  0  0  0  0  0
   -2.1620   -2.2437    0.7107 C   0  0  0  0  0  0  0  0  0  0  0  0
   -3.6348   -2.3805    0.3986 C   0  0  0  0  0  0  0  0  0  0  0  0
   -4.2739   -1.0565    0.3332 N   0  0  0  0  0  0  0  0  0  0  0  0
   -5.6876   -1.2718    0.3464 C   0  0  0  0  0  0  0  0  0  0  0  0
   -6.5012   -0.0498    0.2924 C   0  0  0  0  0  0  0  0  0  0  0  0
   -6.9377    0.5493   -0.8708 C   0  0  0  0  0  0  0  0  0  0  0  0
   -7.7072    1.7106   -0.8202 C   0  0  0  0  0  0  0  0  0  0  0  0
   -8.0605    2.3027    0.3801 C   0  0  0  0  0  0  0  0  0  0  0  0
   -7.6203    1.6987    1.5538 C   0  0  0  0  0  0  0  0  0  0  0  0
   -6.8626    0.5542    1.4853 C   0  0  0  0  0  0  0  0  0  0  0  0
    2.7967   -0.7337   -0.2632 N   0  0  0  0  0  0  0  0  0  0  0  0
    7.1275    3.0153    2.2727 H   0  0  0  0  0  0  0  0  0  0  0  0
    9.5164    3.7169    2.5595 H   0  0  0  0  0  0  0  0  0  0  0  0
    7.3463   -0.6753   -0.7580 H   0  0  0  0  0  0  0  0  0  0  0  0
    2.5538    1.7686    1.8046 H   0  0  0  0  0  0  0  0  0  0  0  0
    0.2089   -1.6414   -0.6944 H   0  0  0  0  0  0  0  0  0  0  0  0
   -1.9603   -0.1317    0.7966 H   0  0  0  0  0  0  0  0  0  0  0  0
   -1.9507    0.2240   -1.6975 H   0  0  0  0  0  0  0  0  0  0  0  0
   -2.3282   -1.4974   -1.9044 H   0  0  0  0  0  0  0  0  0  0  0  0
   -4.4768   -0.8449   -1.7153 H   0  0  0  0  0  0  0  0  0  0  0  0
   -4.0847    0.6689   -0.8828 H   0  0  0  0  0  0  0  0  0  0  0  0
   -2.0542   -2.1403    1.8100 H   0  0  0  0  0  0  0  0  0  0  0  0
   -1.5664   -3.0848    0.3576 H   0  0  0  0  0  0  0  0  0  0  0  0
   -3.7633   -2.8678   -0.5907 H   0  0  0  0  0  0  0  0  0  0  0  0
   -4.1607   -2.9232    1.1984 H   0  0  0  0  0  0  0  0  0  0  0  0
   -5.9736   -1.8262    1.2809 H   0  0  0  0  0  0  0  0  0  0  0  0
   -5.9491   -1.9435   -0.5104 H   0  0  0  0  0  0  0  0  0  0  0  0
   -6.6765    0.1085   -1.8122 H   0  0  0  0  0  0  0  0  0  0  0  0
   -8.0253    2.1426   -1.7609 H   0  0  0  0  0  0  0  0  0  0  0  0
   -8.6586    3.2032    0.3793 H   0  0  0  0  0  0  0  0  0  0  0  0
   -7.9008    2.1679    2.4912 H   0  0  0  0  0  0  0  0  0  0  0  0
   -6.5363    0.1095    2.4160 H   0  0  0  0  0  0  0  0  0  0  0  0
  1  2  1  0
  2  3  1  0
  3  4  2  0
  4  5  1  0
  5  6  2  0
  6  7  1  0
  7  8  2  0
  8  9  1  0
  8 10  1  0
  4 11  1  0
 11 12  2  0
 12 13  1  0
 13 14  1  0
 13 15  1  0
 13 16  1  0
  2 17  2  0
 17 18  1  0
 18 19  1  0
 19 20  2  0
 19 21  1  0
 21 22  1  0
 22 23  1  0
 23 24  1  0
 22 25  1  0
 25 26  1  0
 26 27  1  0
 27 28  1  0
 28 29  1  0
 29 30  2  0
 30 31  1  0
 31 32  2  0
 32 33  1  0
 33 34  2  0
 18 35  2  0
 12  1  1  0
 35  1  1  0
 10  5  1  0
 27 24  1  0
 34 29  1  0
  6 36  1  0
  7 37  1  0
 11 38  1  0
 17 39  1  0
 21 40  1  0
 22 41  1  0
 23 42  1  0
 23 43  1  0
 24 44  1  0
 24 45  1  0
 25 46  1  0
 25 47  1  0
 26 48  1  0
 26 49  1  0
 28 50  1  0
 28 51  1  0
 30 52  1  0
 31 53  1  0
 32 54  1  0
 33 55  1  0
 34 56  1  0
M  END
>  <Batch_No>  (353) 
STK449674

>  <EC50_nM>  (353) 
959

>  <Set>  (353) 
Probe-like

>  <Molecular_Weight>  (353) 
519.96964

>  <ALogP>  (353) 
5.164

$$$$
MMV000986
     RDKit          3D

 46 49  0  0  0  0  0  0  0  0999 V2000
   -0.8522   -0.3608    0.0624 C   0  0  0  0  0  0  0  0  0  0  0  0
   -2.1928    0.0988    0.1715 N   0  0  0  0  0  0  0  0  0  0  0  0
   -3.1601    0.0271   -0.9055 C   0  0  0  0  0  0  0  0  0  0  0  0
   -4.5146   -0.2841   -0.2707 C   0  0  0  0  0  0  0  0  0  0  0  0
   -2.6874    0.6917    1.4262 C   0  0  0  0  0  0  0  0  0  0  0  0
   -3.8954    1.5539    1.1498 C   0  0  0  0  0  0  0  0  0  0  0  0
   -4.9585    0.8827    0.4661 N   0  0  0  0  0  0  0  0  0  0  0  0
   -5.6048    1.8430   -0.4152 C   0  0  0  0  0  0  0  0  0  0  0  0
   -0.5020   -1.6748   -0.1216 C   0  0  0  0  0  0  0  0  0  0  0  0
    0.8314   -1.9946   -0.2289 C   0  0  0  0  0  0  0  0  0  0  0  0
    1.7431   -1.0126   -0.1498 N   0  0  0  0  0  0  0  0  0  0  0  0
    1.4476    0.2757    0.0287 C   0  0  0  0  0  0  0  0  0  0  0  0
    2.3708    1.3351    0.1173 N   0  0  0  0  0  0  0  0  0  0  0  0
    3.7702    1.2550    0.0375 C   0  0  0  0  0  0  0  0  0  0  0  0
    4.5257    2.4219    0.1481 C   0  0  0  0  0  0  0  0  0  0  0  0
    5.8952    2.4342    0.0815 C   0  0  0  0  0  0  0  0  0  0  0  0
    6.5988    1.2675   -0.1018 C   0  0  0  0  0  0  0  0  0  0  0  0
    7.9742    1.1964   -0.1793 O   0  0  0  0  0  0  0  0  0  0  0  0
    4.4932    0.0998   -0.1453 C   0  0  0  0  0  0  0  0  0  0  0  0
    5.8888    0.0934   -0.2156 C   0  0  0  0  0  0  0  0  0  0  0  0
    0.1150    0.5646    0.1319 N   0  0  0  0  0  0  0  0  0  0  0  0
    1.1710   -3.3194   -0.4104 C   0  0  0  0  0  0  0  0  0  0  0  0
    0.1915   -4.3062   -0.4825 C   0  0  0  0  0  0  0  0  0  0  0  0
   -1.1586   -3.9713   -0.3719 C   0  0  0  0  0  0  0  0  0  0  0  0
   -1.4798   -2.6427   -0.1910 C   0  0  0  0  0  0  0  0  0  0  0  0
   -3.2287    1.0812   -1.2910 H   0  0  0  0  0  0  0  0  0  0  0  0
   -2.9346   -0.6894   -1.6903 H   0  0  0  0  0  0  0  0  0  0  0  0
   -4.4410   -1.0980    0.4521 H   0  0  0  0  0  0  0  0  0  0  0  0
   -5.2045   -0.5627   -1.0670 H   0  0  0  0  0  0  0  0  0  0  0  0
   -2.8701   -0.0480    2.2052 H   0  0  0  0  0  0  0  0  0  0  0  0
   -1.9160    1.3920    1.8463 H   0  0  0  0  0  0  0  0  0  0  0  0
   -4.2587    1.8975    2.1465 H   0  0  0  0  0  0  0  0  0  0  0  0
   -3.5589    2.4944    0.6341 H   0  0  0  0  0  0  0  0  0  0  0  0
   -6.4951    2.2738    0.0923 H   0  0  0  0  0  0  0  0  0  0  0  0
   -4.9510    2.6745   -0.6882 H   0  0  0  0  0  0  0  0  0  0  0  0
   -5.9289    1.2892   -1.3377 H   0  0  0  0  0  0  0  0  0  0  0  0
    1.9640    2.3085    0.2613 H   0  0  0  0  0  0  0  0  0  0  0  0
    4.0439    3.3938    0.2955 H   0  0  0  0  0  0  0  0  0  0  0  0
    6.4696    3.3538    0.1697 H   0  0  0  0  0  0  0  0  0  0  0  0
    8.5647    1.5035    0.5951 H   0  0  0  0  0  0  0  0  0  0  0  0
    4.0162   -0.8417   -0.2411 H   0  0  0  0  0  0  0  0  0  0  0  0
    6.4230   -0.8521   -0.3623 H   0  0  0  0  0  0  0  0  0  0  0  0
    2.2236   -3.5664   -0.4948 H   0  0  0  0  0  0  0  0  0  0  0  0
    0.5049   -5.3438   -0.6271 H   0  0  0  0  0  0  0  0  0  0  0  0
   -1.9231   -4.7487   -0.4289 H   0  0  0  0  0  0  0  0  0  0  0  0
   -2.5097   -2.3857   -0.1010 H   0  0  0  0  0  0  0  0  0  0  0  0
  1  2  1  0
  2  3  1  0
  3  4  1  0
  2  5  1  0
  5  6  1  0
  6  7  1  0
  7  8  1  0
  1  9  2  0
  9 10  1  0
 10 11  2  0
 11 12  1  0
 12 13  1  0
 13 14  1  0
 14 15  2  0
 15 16  1  0
 16 17  2  0
 17 18  1  0
 14 19  1  0
 19 20  2  0
 12 21  2  0
 10 22  1  0
 22 23  2  0
 23 24  1  0
 24 25  2  0
 21  1  1  0
  7  4  1  0
 25  9  1  0
 20 17  1  0
  3 26  1  0
  3 27  1  0
  4 28  1  0
  4 29  1  0
  5 30  1  0
  5 31  1  0
  6 32  1  0
  6 33  1  0
  8 34  1  0
  8 35  1  0
  8 36  1  0
 13 37  1  0
 15 38  1  0
 16 39  1  0
 18 40  1  0
 19 41  1  0
 20 42  1  0
 22 43  1  0
 23 44  1  0
 24 45  1  0
 25 46  1  0
M  END
>  <Batch_No>  (354) 
STL161345

>  <EC50_nM>  (354) 
1430

>  <Set>  (354) 
Probe-like

>  <Molecular_Weight>  (354) 
335.40294

>  <ALogP>  (354) 
3.238

$$$$
MMV008160
     RDKit          3D

 51 56  0  0  0  0  0  0  0  0999 V2000
    0.2417   -4.5691   -0.2158 C   0  0  0  0  0  0  0  0  0  0  0  0
    0.0802   -3.2315    0.2532 N   0  0  0  0  0  0  0  0  0  0  0  0
    0.8162   -2.1465   -0.2918 C   0  0  0  0  0  0  0  0  0  0  0  0
    0.6783   -0.9013    0.1277 C   0  0  0  0  0  0  0  0  0  0  0  0
   -0.2383   -0.4587    1.1935 C   0  0  0  0  0  0  0  0  0  0  0  0
   -0.9685   -1.6209    1.7347 C   0  0  0  0  0  0  0  0  0  0  0  0
   -1.8801   -1.4306    2.7698 C   0  0  0  0  0  0  0  0  0  0  0  0
   -2.5983   -2.4963    3.3143 C   0  0  0  0  0  0  0  0  0  0  0  0
   -2.4418   -3.7871    2.8563 C   0  0  0  0  0  0  0  0  0  0  0  0
   -1.5394   -3.9804    1.8311 C   0  0  0  0  0  0  0  0  0  0  0  0
   -0.8315   -2.9188    1.2972 C   0  0  0  0  0  0  0  0  0  0  0  0
   -1.2792    0.4808    0.6341 C   0  0  0  0  0  0  0  0  0  0  0  0
   -1.8543    0.3343   -0.6268 C   0  0  0  0  0  0  0  0  0  0  0  0
   -2.7375    1.3265   -0.7974 N   0  0  0  0  0  0  0  0  0  0  0  0
   -2.7638    2.1234    0.3103 C   0  0  0  0  0  0  0  0  0  0  0  0
   -3.5093    3.2522    0.5749 C   0  0  0  0  0  0  0  0  0  0  0  0
   -3.3376    3.8849    1.7896 C   0  0  0  0  0  0  0  0  0  0  0  0
   -2.4254    3.3462    2.6690 C   0  0  0  0  0  0  0  0  0  0  0  0
   -1.6787    2.2235    2.4159 C   0  0  0  0  0  0  0  0  0  0  0  0
   -1.8521    1.5844    1.1899 C   0  0  0  0  0  0  0  0  0  0  0  0
    1.5395    0.0884   -0.5588 C   0  0  0  0  0  0  0  0  0  0  0  0
    1.5398    1.4219   -0.2157 C   0  0  0  0  0  0  0  0  0  0  0  0
    2.3481    2.3435   -0.8720 C   0  0  0  0  0  0  0  0  0  0  0  0
    3.1742    1.9238   -1.8927 C   0  0  0  0  0  0  0  0  0  0  0  0
    4.0064    2.7764   -2.5920 C   0  0  0  0  0  0  0  0  0  0  0  0
    4.7936    2.2493   -3.5963 C   0  0  0  0  0  0  0  0  0  0  0  0
    4.7842    0.9070   -3.9313 C   0  0  0  0  0  0  0  0  0  0  0  0
    3.9538    0.0545   -3.2341 C   0  0  0  0  0  0  0  0  0  0  0  0
    3.1621    0.5858   -2.2236 C   0  0  0  0  0  0  0  0  0  0  0  0
    2.3655   -0.2712   -1.5640 N   0  0  0  0  0  0  0  0  0  0  0  0
    0.8690   -4.5825   -1.1377 H   0  0  0  0  0  0  0  0  0  0  0  0
   -0.7726   -4.9394   -0.5455 H   0  0  0  0  0  0  0  0  0  0  0  0
    0.5859   -5.2803    0.5580 H   0  0  0  0  0  0  0  0  0  0  0  0
    1.5163   -2.4072   -1.0936 H   0  0  0  0  0  0  0  0  0  0  0  0
    0.2910    0.0166    2.0425 H   0  0  0  0  0  0  0  0  0  0  0  0
   -2.0849   -0.4700    3.2109 H   0  0  0  0  0  0  0  0  0  0  0  0
   -3.3104   -2.3168    4.1298 H   0  0  0  0  0  0  0  0  0  0  0  0
   -3.0208   -4.5715    3.3117 H   0  0  0  0  0  0  0  0  0  0  0  0
   -1.4006   -5.0035    1.4518 H   0  0  0  0  0  0  0  0  0  0  0  0
   -1.5924   -0.4653   -1.3093 H   0  0  0  0  0  0  0  0  0  0  0  0
   -3.3129    1.4622   -1.6501 H   0  0  0  0  0  0  0  0  0  0  0  0
   -4.2241    3.6680   -0.1242 H   0  0  0  0  0  0  0  0  0  0  0  0
   -3.9154    4.7737    2.0142 H   0  0  0  0  0  0  0  0  0  0  0  0
   -2.2833    3.8341    3.6232 H   0  0  0  0  0  0  0  0  0  0  0  0
   -0.9618    1.7977    3.1028 H   0  0  0  0  0  0  0  0  0  0  0  0
    0.9200    1.8061    0.5766 H   0  0  0  0  0  0  0  0  0  0  0  0
    2.3582    3.3766   -0.6170 H   0  0  0  0  0  0  0  0  0  0  0  0
    4.0216    3.8383   -2.3362 H   0  0  0  0  0  0  0  0  0  0  0  0
    5.4655    2.8867   -4.1739 H   0  0  0  0  0  0  0  0  0  0  0  0
    5.3969    0.4831   -4.7161 H   0  0  0  0  0  0  0  0  0  0  0  0
    3.9071   -1.0007   -3.4541 H   0  0  0  0  0  0  0  0  0  0  0  0
  1  2  1  0
  2  3  1  0
  3  4  2  0
  4  5  1  0
  5  6  1  0
  6  7  2  0
  7  8  1  0
  8  9  2  0
  9 10  1  0
 10 11  2  0
  5 12  1  0
 12 13  2  0
 13 14  1  0
 14 15  1  0
 15 16  2  0
 16 17  1  0
 17 18  2  0
 18 19  1  0
 19 20  2  0
  4 21  1  0
 21 22  2  0
 22 23  1  0
 23 24  2  0
 24 25  1  0
 25 26  2  0
 26 27  1  0
 27 28  2  0
 28 29  1  0
 29 30  2  0
 11  2  1  0
 11  6  1  0
 20 12  1  0
 20 15  1  0
 30 21  1  0
 29 24  1  0
  1 31  1  0
  1 32  1  0
  1 33  1  0
  3 34  1  0
  5 35  1  0
  7 36  1  0
  8 37  1  0
  9 38  1  0
 10 39  1  0
 13 40  1  0
 14 41  1  0
 16 42  1  0
 17 43  1  0
 18 44  1  0
 19 45  1  0
 22 46  1  0
 23 47  1  0
 25 48  1  0
 26 49  1  0
 27 50  1  0
 28 51  1  0
M  END
>  <Batch_No>  (355) 
STK371711

>  <EC50_nM>  (355) 
552

>  <Set>  (355) 
Probe-like

>  <Molecular_Weight>  (355) 
387.47574

>  <ALogP>  (355) 
5.807

$$$$
MMV000753
     RDKit          3D

 77 85  0  0  0  0  0  0  0  0999 V2000
   10.0414    3.4641    3.0589 O   0  0  0  0  0  0  0  0  0  0  0  0
    9.0067    2.7808    2.4358 C   0  0  0  0  0  0  0  0  0  0  0  0
    8.0971    2.1234    3.2351 C   0  0  0  0  0  0  0  0  0  0  0  0
    7.0406    1.4233    2.6610 C   0  0  0  0  0  0  0  0  0  0  0  0
    6.8897    1.3781    1.2806 C   0  0  0  0  0  0  0  0  0  0  0  0
    7.8025    2.0361    0.5167 C   0  0  0  0  0  0  0  0  0  0  0  0
    8.8788    2.7518    1.0437 C   0  0  0  0  0  0  0  0  0  0  0  0
    5.7953    0.6541    0.6467 C   0  0  0  0  0  0  0  0  0  0  0  0
    4.8490   -0.0254    1.3384 N   0  0  0  0  0  0  0  0  0  0  0  0
    3.9850   -0.5809    0.4555 C   0  0  0  0  0  0  0  0  0  0  0  0
    2.8464   -1.3822    0.8877 C   0  0  0  0  0  0  0  0  0  0  0  0
    3.1621   -2.5378    1.6119 C   0  0  0  0  0  0  0  0  0  0  0  0
    2.1908   -3.3789    2.0784 C   0  0  0  0  0  0  0  0  0  0  0  0
    0.8789   -3.0531    1.8126 C   0  0  0  0  0  0  0  0  0  0  0  0
   -0.2245   -3.6657    2.1326 O   0  0  0  0  0  0  0  0  0  0  0  0
   -1.2703   -3.0143    1.6807 C   0  0  0  0  0  0  0  0  0  0  0  0
   -2.6127   -3.3191    1.8002 C   0  0  0  0  0  0  0  0  0  0  0  0
   -3.5018   -2.4395    1.2165 C   0  0  0  0  0  0  0  0  0  0  0  0
   -3.0516   -1.3070    0.5449 C   0  0  0  0  0  0  0  0  0  0  0  0
   -1.6991   -1.0128    0.4324 C   0  0  0  0  0  0  0  0  0  0  0  0
   -0.8140   -1.8943    1.0171 C   0  0  0  0  0  0  0  0  0  0  0  0
    0.5669   -1.9133    1.0982 C   0  0  0  0  0  0  0  0  0  0  0  0
    1.5362   -1.0465    0.6157 C   0  0  0  0  0  0  0  0  0  0  0  0
   -4.0889   -0.4534   -0.0300 C   0  0  0  0  0  0  0  0  0  0  0  0
   -4.9686   -0.8875   -0.9802 N   0  0  0  0  0  0  0  0  0  0  0  0
   -5.8028    0.1038   -1.3197 C   0  0  0  0  0  0  0  0  0  0  0  0
   -5.4465    1.1677   -0.5795 N   0  0  0  0  0  0  0  0  0  0  0  0
   -4.4057    0.8489    0.2116 C   0  0  0  0  0  0  0  0  0  0  0  0
   -3.6904    1.6887    1.1775 C   0  0  0  0  0  0  0  0  0  0  0  0
   -3.0688    2.8180    0.6324 C   0  0  0  0  0  0  0  0  0  0  0  0
   -2.3635    3.6745    1.4814 C   0  0  0  0  0  0  0  0  0  0  0  0
   -2.2857    3.4011    2.8458 C   0  0  0  0  0  0  0  0  0  0  0  0
   -2.9135    2.2818    3.3231 C   0  0  0  0  0  0  0  0  0  0  0  0
   -3.6256    1.4017    2.5190 C   0  0  0  0  0  0  0  0  0  0  0  0
   -6.8745    0.0031   -2.3059 C   0  0  0  0  0  0  0  0  0  0  0  0
   -7.0663   -1.1979   -2.9562 C   0  0  0  0  0  0  0  0  0  0  0  0
   -8.0735   -1.3651   -3.9122 C   0  0  0  0  0  0  0  0  0  0  0  0
   -8.8973   -0.3136   -4.2183 C   0  0  0  0  0  0  0  0  0  0  0  0
   -9.9084   -0.4782   -5.1768 O   0  0  0  0  0  0  0  0  0  0  0  0
   -8.7137    0.9046   -3.5684 C   0  0  0  0  0  0  0  0  0  0  0  0
   -7.6976    1.0422   -2.6164 C   0  0  0  0  0  0  0  0  0  0  0  0
    4.3949   -0.2448   -0.8172 C   0  0  0  0  0  0  0  0  0  0  0  0
    5.5028    0.5091   -0.6560 N   0  0  0  0  0  0  0  0  0  0  0  0
    3.7323   -0.6460   -2.0532 C   0  0  0  0  0  0  0  0  0  0  0  0
    3.2574    0.3993   -2.8505 C   0  0  0  0  0  0  0  0  0  0  0  0
    2.6130    0.1404   -4.0446 C   0  0  0  0  0  0  0  0  0  0  0  0
    2.4538   -1.1666   -4.4228 C   0  0  0  0  0  0  0  0  0  0  0  0
    2.9241   -2.1967   -3.6328 C   0  0  0  0  0  0  0  0  0  0  0  0
    3.5725   -1.9622   -2.4332 C   0  0  0  0  0  0  0  0  0  0  0  0
   10.7554    3.9286    2.4952 H   0  0  0  0  0  0  0  0  0  0  0  0
    8.1548    2.1172    4.3162 H   0  0  0  0  0  0  0  0  0  0  0  0
    6.3205    0.9035    3.2814 H   0  0  0  0  0  0  0  0  0  0  0  0
    7.6814    1.9986   -0.5593 H   0  0  0  0  0  0  0  0  0  0  0  0
    9.5871    3.2637    0.4239 H   0  0  0  0  0  0  0  0  0  0  0  0
    4.1887   -2.7966    1.8224 H   0  0  0  0  0  0  0  0  0  0  0  0
    2.4077   -4.2774    2.6399 H   0  0  0  0  0  0  0  0  0  0  0  0
   -2.9679   -4.1953    2.3193 H   0  0  0  0  0  0  0  0  0  0  0  0
   -4.5584   -2.6718    1.3059 H   0  0  0  0  0  0  0  0  0  0  0  0
   -1.3817   -0.1301   -0.0929 H   0  0  0  0  0  0  0  0  0  0  0  0
    1.3136   -0.1660    0.0648 H   0  0  0  0  0  0  0  0  0  0  0  0
   -4.9804   -1.8707   -1.3837 H   0  0  0  0  0  0  0  0  0  0  0  0
   -3.1326    3.0296   -0.4430 H   0  0  0  0  0  0  0  0  0  0  0  0
   -1.8894    4.5443    1.0367 H   0  0  0  0  0  0  0  0  0  0  0  0
   -1.7297    4.0967    3.4450 H   0  0  0  0  0  0  0  0  0  0  0  0
   -2.8347    2.0922    4.4017 H   0  0  0  0  0  0  0  0  0  0  0  0
   -4.1177    0.5203    2.9068 H   0  0  0  0  0  0  0  0  0  0  0  0
   -6.4622   -2.0797   -2.7760 H   0  0  0  0  0  0  0  0  0  0  0  0
   -8.2042   -2.3193   -4.4098 H   0  0  0  0  0  0  0  0  0  0  0  0
  -10.5433   -1.2618   -4.9581 H   0  0  0  0  0  0  0  0  0  0  0  0
   -9.3437    1.7443   -3.7882 H   0  0  0  0  0  0  0  0  0  0  0  0
   -7.5882    1.9984   -2.1370 H   0  0  0  0  0  0  0  0  0  0  0  0
    6.0594    0.9251   -1.4393 H   0  0  0  0  0  0  0  0  0  0  0  0
    3.3852    1.4291   -2.5486 H   0  0  0  0  0  0  0  0  0  0  0  0
    2.2645    0.9658   -4.6256 H   0  0  0  0  0  0  0  0  0  0  0  0
    1.9396   -1.3375   -5.3727 H   0  0  0  0  0  0  0  0  0  0  0  0
    2.7732   -3.2133   -3.9763 H   0  0  0  0  0  0  0  0  0  0  0  0
    3.9501   -2.7517   -1.7966 H   0  0  0  0  0  0  0  0  0  0  0  0
  1  2  1  0
  2  3  2  0
  3  4  1  0
  4  5  2  0
  5  6  1  0
  6  7  2  0
  5  8  1  0
  8  9  2  0
  9 10  1  0
 10 11  1  0
 11 12  2  0
 12 13  1  0
 13 14  2  0
 14 15  1  0
 15 16  1  0
 16 17  2  0
 17 18  1  0
 18 19  2  0
 19 20  1  0
 20 21  2  0
 21 22  1  0
 22 23  2  0
 19 24  1  0
 24 25  1  0
 25 26  1  0
 26 27  2  0
 27 28  1  0
 28 29  1  0
 29 30  2  0
 30 31  1  0
 31 32  2  0
 32 33  1  0
 33 34  2  0
 26 35  1  0
 35 36  2  0
 36 37  1  0
 37 38  2  0
 38 39  1  0
 38 40  1  0
 40 41  2  0
 10 42  2  0
 42 43  1  0
 42 44  1  0
 44 45  2  0
 45 46  1  0
 46 47  2  0
 47 48  1  0
 48 49  2  0
  7  2  1  0
 43  8  1  0
 23 11  1  0
 22 14  1  0
 21 16  1  0
 28 24  2  0
 34 29  1  0
 41 35  1  0
 49 44  1  0
  1 50  1  0
  3 51  1  0
  4 52  1  0
  6 53  1  0
  7 54  1  0
 12 55  1  0
 13 56  1  0
 17 57  1  0
 18 58  1  0
 20 59  1  0
 23 60  1  0
 25 61  1  0
 30 62  1  0
 31 63  1  0
 32 64  1  0
 33 65  1  0
 34 66  1  0
 36 67  1  0
 37 68  1  0
 39 69  1  0
 40 70  1  0
 41 71  1  0
 43 72  1  0
 45 73  1  0
 46 74  1  0
 47 75  1  0
 48 76  1  0
 49 77  1  0
M  END
>  <Batch_No>  (356) 
STK674896

>  <EC50_nM>  (356) 
326

>  <Set>  (356) 
Probe-like

>  <Molecular_Weight>  (356) 
636.69672

>  <ALogP>  (356) 
9.987

$$$$
MMV011436
     RDKit          3D

 74 79  0  0  0  0  0  0  0  0999 V2000
   -8.0909    1.1993   -0.8760 C   0  0  0  0  0  0  0  0  0  0  0  0
   -7.3722    0.3703    0.1792 C   0  0  0  0  0  0  0  0  0  0  0  0
   -8.0063   -0.9897    0.2800 C   0  0  0  0  0  0  0  0  0  0  0  0
   -7.4913    1.1428    1.4816 C   0  0  0  0  0  0  0  0  0  0  0  0
   -5.9326    0.3080   -0.1521 C   0  0  0  0  0  0  0  0  0  0  0  0
   -5.4425    0.9521   -1.2825 C   0  0  0  0  0  0  0  0  0  0  0  0
   -4.0839    0.8915   -1.5923 C   0  0  0  0  0  0  0  0  0  0  0  0
   -3.2126    0.1842   -0.7685 C   0  0  0  0  0  0  0  0  0  0  0  0
   -3.7130   -0.4511    0.3514 C   0  0  0  0  0  0  0  0  0  0  0  0
   -5.0561   -0.3813    0.6426 C   0  0  0  0  0  0  0  0  0  0  0  0
   -1.7661    0.1380   -1.1264 C   0  0  0  0  0  0  0  0  0  0  0  0
   -1.3834   -1.2944   -1.2876 C   0  0  0  0  0  0  0  0  0  0  0  0
    0.0388   -1.6096   -1.0834 C   0  0  0  0  0  0  0  0  0  0  0  0
    0.9781   -0.7451   -0.7153 C   0  0  0  0  0  0  0  0  0  0  0  0
    2.3316   -1.3290   -0.5785 C   0  0  0  0  0  0  0  0  0  0  0  0
    3.4085   -0.3441   -0.5540 N   0  0  0  0  0  0  0  0  0  0  0  0
    4.5473   -0.6543    0.2301 C   0  0  0  0  0  0  0  0  0  0  0  0
    4.5463   -1.8451    0.7151 O   0  0  0  0  0  0  0  0  0  0  0  0
    5.6896    0.1193    0.5965 C   0  0  0  0  0  0  0  0  0  0  0  0
    5.4611    1.1812    1.4963 C   0  0  0  0  0  0  0  0  0  0  0  0
    6.4834    2.0214    1.8833 C   0  0  0  0  0  0  0  0  0  0  0  0
    7.7606    1.8679    1.4173 C   0  0  0  0  0  0  0  0  0  0  0  0
    8.0103    0.8391    0.5392 C   0  0  0  0  0  0  0  0  0  0  0  0
    6.9835    0.0045    0.1587 C   0  0  0  0  0  0  0  0  0  0  0  0
    7.4014   -1.3351   -0.9223 Cl  0  0  0  0  0  0  0  0  0  0  0  0
    3.3787    0.9142   -1.1995 C   0  0  0  0  0  0  0  0  0  0  0  0
    4.5827    1.1662   -1.8135 C   0  0  0  0  0  0  0  0  0  0  0  0
    4.8500    2.3333   -2.4897 C   0  0  0  0  0  0  0  0  0  0  0  0
    3.8371    3.2934   -2.5450 C   0  0  0  0  0  0  0  0  0  0  0  0
    2.6057    3.0923   -1.9478 C   0  0  0  0  0  0  0  0  0  0  0  0
    2.4184    1.8998   -1.2915 C   0  0  0  0  0  0  0  0  0  0  0  0
    1.0725    1.7720   -0.7467 N   0  0  0  0  0  0  0  0  0  0  0  0
    0.4808    0.6328   -0.5118 C   0  0  0  0  0  0  0  0  0  0  0  0
   -0.9064    0.7445   -0.0123 C   0  0  0  0  0  0  0  0  0  0  0  0
    2.2940   -2.0205    0.7690 C   0  0  0  0  0  0  0  0  0  0  0  0
    2.1923   -1.2556    1.9390 C   0  0  0  0  0  0  0  0  0  0  0  0
    2.1599   -1.8971    3.1740 C   0  0  0  0  0  0  0  0  0  0  0  0
    2.2270   -3.2727    3.2485 C   0  0  0  0  0  0  0  0  0  0  0  0
    2.1979   -3.9325    4.4331 F   0  0  0  0  0  0  0  0  0  0  0  0
    2.3278   -4.0376    2.1019 C   0  0  0  0  0  0  0  0  0  0  0  0
    2.3592   -3.3899    0.8866 C   0  0  0  0  0  0  0  0  0  0  0  0
    0.3969   -2.9576   -1.3094 O   0  0  0  0  0  0  0  0  0  0  0  0
   -7.6540    2.2002   -0.8528 H   0  0  0  0  0  0  0  0  0  0  0  0
   -7.9816    0.6961   -1.8573 H   0  0  0  0  0  0  0  0  0  0  0  0
   -9.1645    1.2066   -0.6044 H   0  0  0  0  0  0  0  0  0  0  0  0
   -9.0746   -0.9014   -0.0030 H   0  0  0  0  0  0  0  0  0  0  0  0
   -7.4278   -1.6984   -0.3379 H   0  0  0  0  0  0  0  0  0  0  0  0
   -7.8991   -1.3188    1.3352 H   0  0  0  0  0  0  0  0  0  0  0  0
   -8.3782    0.7574    2.0102 H   0  0  0  0  0  0  0  0  0  0  0  0
   -7.6230    2.2261    1.2980 H   0  0  0  0  0  0  0  0  0  0  0  0
   -6.5990    0.9519    2.0917 H   0  0  0  0  0  0  0  0  0  0  0  0
   -6.0764    1.5142   -1.9544 H   0  0  0  0  0  0  0  0  0  0  0  0
   -3.7287    1.4033   -2.4804 H   0  0  0  0  0  0  0  0  0  0  0  0
   -3.0453   -1.0080    1.0055 H   0  0  0  0  0  0  0  0  0  0  0  0
   -5.4213   -0.8941    1.5352 H   0  0  0  0  0  0  0  0  0  0  0  0
   -1.6644    0.7295   -2.0609 H   0  0  0  0  0  0  0  0  0  0  0  0
   -1.7345   -1.5943   -2.3100 H   0  0  0  0  0  0  0  0  0  0  0  0
   -1.9874   -1.8792   -0.5383 H   0  0  0  0  0  0  0  0  0  0  0  0
    2.4564   -2.1138   -1.3303 H   0  0  0  0  0  0  0  0  0  0  0  0
    4.4827    1.3602    1.9018 H   0  0  0  0  0  0  0  0  0  0  0  0
    6.2632    2.8325    2.5829 H   0  0  0  0  0  0  0  0  0  0  0  0
    8.5451    2.5276    1.7252 H   0  0  0  0  0  0  0  0  0  0  0  0
    9.0188    0.6826    0.1434 H   0  0  0  0  0  0  0  0  0  0  0  0
    5.3188    0.4008   -1.7826 H   0  0  0  0  0  0  0  0  0  0  0  0
    5.8052    2.4921   -2.9551 H   0  0  0  0  0  0  0  0  0  0  0  0
    3.9903    4.2358   -3.0648 H   0  0  0  0  0  0  0  0  0  0  0  0
    1.8214    3.8327   -1.9900 H   0  0  0  0  0  0  0  0  0  0  0  0
   -1.0655    0.1448    0.8802 H   0  0  0  0  0  0  0  0  0  0  0  0
   -1.2477    1.7908    0.0757 H   0  0  0  0  0  0  0  0  0  0  0  0
    2.1394   -0.1586    1.8665 H   0  0  0  0  0  0  0  0  0  0  0  0
    2.0820   -1.3349    4.0929 H   0  0  0  0  0  0  0  0  0  0  0  0
    2.3821   -5.1225    2.1360 H   0  0  0  0  0  0  0  0  0  0  0  0
    2.4535   -4.0097    0.0098 H   0  0  0  0  0  0  0  0  0  0  0  0
    0.4499   -3.2774   -2.2855 H   0  0  0  0  0  0  0  0  0  0  0  0
  1  2  1  0
  2  3  1  0
  2  4  1  0
  2  5  1  0
  5  6  2  0
  6  7  1  0
  7  8  2  0
  8  9  1  0
  9 10  2  0
  8 11  1  0
 11 12  1  0
 12 13  1  0
 13 14  2  0
 14 15  1  0
 15 16  1  0
 16 17  1  0
 17 18  2  0
 17 19  1  0
 19 20  2  0
 20 21  1  0
 21 22  2  0
 22 23  1  0
 23 24  2  0
 24 25  1  0
 16 26  1  0
 26 27  2  0
 27 28  1  0
 28 29  2  0
 29 30  1  0
 30 31  2  0
 31 32  1  0
 32 33  2  0
 33 34  1  0
 15 35  1  0
 35 36  2  0
 36 37  1  0
 37 38  2  0
 38 39  1  0
 38 40  1  0
 40 41  2  0
 13 42  1  0
 10  5  1  0
 34 11  1  0
 33 14  1  0
 24 19  1  0
 31 26  1  0
 41 35  1  0
  1 43  1  0
  1 44  1  0
  1 45  1  0
  3 46  1  0
  3 47  1  0
  3 48  1  0
  4 49  1  0
  4 50  1  0
  4 51  1  0
  6 52  1  0
  7 53  1  0
  9 54  1  0
 10 55  1  0
 11 56  1  0
 12 57  1  0
 12 58  1  0
 15 59  1  0
 20 60  1  0
 21 61  1  0
 22 62  1  0
 23 63  1  0
 27 64  1  0
 28 65  1  0
 29 66  1  0
 30 67  1  0
 34 68  1  0
 34 69  1  0
 36 70  1  0
 37 71  1  0
 40 72  1  0
 41 73  1  0
 42 74  1  0
M  END
>  <Batch_No>  (357) 
STK007351

>  <EC50_nM>  (357) 
946.5

>  <Set>  (357) 
Probe-like

>  <Molecular_Weight>  (357) 
579.10288

>  <ALogP>  (357) 
8.326

$$$$
MMV665882
     RDKit          3D

 50 53  0  0  0  0  0  0  0  0999 V2000
    0.4940    0.7178    1.7559 O   0  0  0  0  0  0  0  0  0  0  0  0
    0.1081   -0.3044    0.8658 C   0  0  0  0  0  0  0  0  0  0  0  0
   -1.3937   -0.4364    0.7591 C   0  0  0  0  0  0  0  0  0  0  0  0
   -1.9483    0.7768    0.2966 N   0  0  0  0  0  0  0  0  0  0  0  0
   -3.3688    0.8596    0.1610 C   0  0  0  0  0  0  0  0  0  0  0  0
   -3.8615   -0.1225   -0.8164 C   0  0  0  0  0  0  0  0  0  0  0  0
   -5.2833   -0.5751   -0.6473 C   0  0  0  0  0  0  0  0  0  0  0  0
   -5.6954   -0.7588    0.7750 C   0  0  0  0  0  0  0  0  0  0  0  0
   -5.5274    0.6180    1.4225 C   0  0  0  0  0  0  0  0  0  0  0  0
   -4.0488    0.8575    1.5014 C   0  0  0  0  0  0  0  0  0  0  0  0
    0.7590   -0.0029   -0.4602 C   0  0  0  0  0  0  0  0  0  0  0  0
    2.2026    0.0165   -0.3222 N   0  0  0  0  0  0  0  0  0  0  0  0
    3.0300    1.0290   -0.0291 C   0  0  0  0  0  0  0  0  0  0  0  0
    2.7743    2.3652    0.2324 C   0  0  0  0  0  0  0  0  0  0  0  0
    3.8333    3.2243    0.5145 C   0  0  0  0  0  0  0  0  0  0  0  0
    5.1139    2.7386    0.5301 C   0  0  0  0  0  0  0  0  0  0  0  0
    6.7083    4.0594    0.9603 I   0  0  0  0  0  0  0  0  0  0  0  0
    5.4071    1.4112    0.2740 C   0  0  0  0  0  0  0  0  0  0  0  0
    4.3394    0.5705   -0.0050 C   0  0  0  0  0  0  0  0  0  0  0  0
    4.2962   -0.7915   -0.2997 C   0  0  0  0  0  0  0  0  0  0  0  0
    5.2902   -1.7522   -0.4123 C   0  0  0  0  0  0  0  0  0  0  0  0
    4.9189   -3.0412   -0.7221 C   0  0  0  0  0  0  0  0  0  0  0  0
    6.3932   -4.5465   -0.9063 I   0  0  0  0  0  0  0  0  0  0  0  0
    3.6101   -3.3694   -0.9140 C   0  0  0  0  0  0  0  0  0  0  0  0
    2.6412   -2.3970   -0.7966 C   0  0  0  0  0  0  0  0  0  0  0  0
    2.9648   -1.0935   -0.4881 C   0  0  0  0  0  0  0  0  0  0  0  0
   -0.2243    1.3973    1.7069 H   0  0  0  0  0  0  0  0  0  0  0  0
    0.5680   -1.2406    1.2620 H   0  0  0  0  0  0  0  0  0  0  0  0
   -1.7348   -0.7540    1.7650 H   0  0  0  0  0  0  0  0  0  0  0  0
   -1.5489   -1.3327    0.1118 H   0  0  0  0  0  0  0  0  0  0  0  0
   -1.5619    0.9501   -0.6815 H   0  0  0  0  0  0  0  0  0  0  0  0
   -3.5607    1.8940   -0.2563 H   0  0  0  0  0  0  0  0  0  0  0  0
   -3.8271    0.3275   -1.8532 H   0  0  0  0  0  0  0  0  0  0  0  0
   -3.2575   -1.0439   -0.9156 H   0  0  0  0  0  0  0  0  0  0  0  0
   -5.9686    0.1715   -1.1118 H   0  0  0  0  0  0  0  0  0  0  0  0
   -5.4384   -1.4987   -1.2424 H   0  0  0  0  0  0  0  0  0  0  0  0
   -5.0263   -1.4561    1.3085 H   0  0  0  0  0  0  0  0  0  0  0  0
   -6.7353   -1.1118    0.7953 H   0  0  0  0  0  0  0  0  0  0  0  0
   -5.9375    0.6121    2.4367 H   0  0  0  0  0  0  0  0  0  0  0  0
   -6.0236    1.3245    0.7361 H   0  0  0  0  0  0  0  0  0  0  0  0
   -3.9182    1.8591    1.9687 H   0  0  0  0  0  0  0  0  0  0  0  0
   -3.6274    0.1437    2.2233 H   0  0  0  0  0  0  0  0  0  0  0  0
    0.4409    1.0130   -0.8053 H   0  0  0  0  0  0  0  0  0  0  0  0
    0.4633   -0.7688   -1.2082 H   0  0  0  0  0  0  0  0  0  0  0  0
    1.7717    2.7256    0.2159 H   0  0  0  0  0  0  0  0  0  0  0  0
    3.6837    4.2686    0.7235 H   0  0  0  0  0  0  0  0  0  0  0  0
    6.4244    1.0345    0.2881 H   0  0  0  0  0  0  0  0  0  0  0  0
    6.3480   -1.5133   -0.2629 H   0  0  0  0  0  0  0  0  0  0  0  0
    3.3058   -4.3859   -1.1596 H   0  0  0  0  0  0  0  0  0  0  0  0
    1.6273   -2.6688   -0.9491 H   0  0  0  0  0  0  0  0  0  0  0  0
  1  2  1  0
  2  3  1  0
  3  4  1  0
  4  5  1  0
  5  6  1  0
  6  7  1  0
  7  8  1  0
  8  9  1  0
  9 10  1  0
  2 11  1  0
 11 12  1  0
 12 13  1  0
 13 14  2  0
 14 15  1  0
 15 16  2  0
 16 17  1  0
 16 18  1  0
 18 19  2  0
 19 20  1  0
 20 21  2  0
 21 22  1  0
 22 23  1  0
 22 24  2  0
 24 25  1  0
 25 26  2  0
 10  5  1  0
 26 12  1  0
 19 13  1  0
 26 20  1  0
  1 27  1  0
  2 28  1  0
  3 29  1  0
  3 30  1  0
  4 31  1  0
  5 32  1  0
  6 33  1  0
  6 34  1  0
  7 35  1  0
  7 36  1  0
  8 37  1  0
  8 38  1  0
  9 39  1  0
  9 40  1  0
 10 41  1  0
 10 42  1  0
 11 43  1  0
 11 44  1  0
 14 45  1  0
 15 46  1  0
 18 47  1  0
 21 48  1  0
 24 49  1  0
 25 50  1  0
M  END
>  <Batch_No>  (358) 
OSSK_109585

>  <EC50_nM>  (358) 
466

>  <Set>  (358) 
Probe-like

>  <Molecular_Weight>  (358) 
574.237

>  <ALogP>  (358) 
5.636

$$$$
MMV665809
     RDKit          3D

 43 45  0  0  0  0  0  0  0  0999 V2000
   -3.7583    0.4036    2.0194 O   0  0  0  0  0  0  0  0  0  0  0  0
   -4.1606    0.3230    0.6769 C   0  0  0  0  0  0  0  0  0  0  0  0
   -5.1806    1.1475    0.2042 C   0  0  0  0  0  0  0  0  0  0  0  0
   -5.5670    1.0534   -1.1331 C   0  0  0  0  0  0  0  0  0  0  0  0
   -4.9687    0.1680   -2.0003 C   0  0  0  0  0  0  0  0  0  0  0  0
   -5.5131    0.0492   -3.8432 Br  0  0  0  0  0  0  0  0  0  0  0  0
   -3.9497   -0.6549   -1.5254 C   0  0  0  0  0  0  0  0  0  0  0  0
   -3.5572   -0.5670   -0.1893 C   0  0  0  0  0  0  0  0  0  0  0  0
   -2.4673   -1.4638    0.2701 C   0  0  0  0  0  0  0  0  0  0  0  0
   -1.2199   -0.8581    0.4371 N   0  0  0  0  0  0  0  0  0  0  0  0
   -0.5659   -0.2296   -0.6323 C   0  0  0  0  0  0  0  0  0  0  0  0
    0.9333   -0.2319   -0.2943 C   0  0  0  0  0  0  0  0  0  0  0  0
    1.2414    0.4584    0.9101 N   0  0  0  0  0  0  0  0  0  0  0  0
    2.4285   -0.0039    1.5681 C   0  0  0  0  0  0  0  0  0  0  0  0
    3.6448    0.1382    0.7255 C   0  0  0  0  0  0  0  0  0  0  0  0
    4.3772    1.3025    0.7784 C   0  0  0  0  0  0  0  0  0  0  0  0
    5.5158    1.5254    0.0371 C   0  0  0  0  0  0  0  0  0  0  0  0
    5.9674    0.5240   -0.8222 C   0  0  0  0  0  0  0  0  0  0  0  0
    7.4143    0.7460   -1.7961 Cl  0  0  0  0  0  0  0  0  0  0  0  0
    5.2371   -0.6243   -0.8683 C   0  0  0  0  0  0  0  0  0  0  0  0
    4.0965   -0.8477   -0.1258 C   0  0  0  0  0  0  0  0  0  0  0  0
    0.1461    0.4695    1.8483 C   0  0  0  0  0  0  0  0  0  0  0  0
   -0.6200   -0.8287    1.7182 C   0  0  0  0  0  0  0  0  0  0  0  0
   -3.0940    1.1528    2.2156 H   0  0  0  0  0  0  0  0  0  0  0  0
   -5.6672    1.8517    0.8655 H   0  0  0  0  0  0  0  0  0  0  0  0
   -6.3619    1.6813   -1.5439 H   0  0  0  0  0  0  0  0  0  0  0  0
   -3.4484   -1.3659   -2.1631 H   0  0  0  0  0  0  0  0  0  0  0  0
   -2.3667   -2.3326   -0.4400 H   0  0  0  0  0  0  0  0  0  0  0  0
   -2.7495   -1.9532    1.2359 H   0  0  0  0  0  0  0  0  0  0  0  0
   -0.6621   -0.8323   -1.5637 H   0  0  0  0  0  0  0  0  0  0  0  0
   -0.8129    0.8336   -0.8165 H   0  0  0  0  0  0  0  0  0  0  0  0
    1.2085   -1.3231   -0.1953 H   0  0  0  0  0  0  0  0  0  0  0  0
    1.5291    0.1353   -1.1651 H   0  0  0  0  0  0  0  0  0  0  0  0
    2.3377   -1.0617    1.9238 H   0  0  0  0  0  0  0  0  0  0  0  0
    2.6331    0.5750    2.4923 H   0  0  0  0  0  0  0  0  0  0  0  0
    4.0319    2.0988    1.4518 H   0  0  0  0  0  0  0  0  0  0  0  0
    6.0857    2.4547    0.0903 H   0  0  0  0  0  0  0  0  0  0  0  0
    5.5715   -1.4144   -1.5297 H   0  0  0  0  0  0  0  0  0  0  0  0
    3.5577   -1.7810   -0.2037 H   0  0  0  0  0  0  0  0  0  0  0  0
   -0.5213    1.3222    1.6053 H   0  0  0  0  0  0  0  0  0  0  0  0
    0.4878    0.5782    2.9127 H   0  0  0  0  0  0  0  0  0  0  0  0
   -1.3406   -0.9313    2.5431 H   0  0  0  0  0  0  0  0  0  0  0  0
    0.1075   -1.6870    1.7631 H   0  0  0  0  0  0  0  0  0  0  0  0
  1  2  1  0
  2  3  2  0
  3  4  1  0
  4  5  2  0
  5  6  1  0
  5  7  1  0
  7  8  2  0
  8  9  1  0
  9 10  1  0
 10 11  1  0
 11 12  1  0
 12 13  1  0
 13 14  1  0
 14 15  1  0
 15 16  2  0
 16 17  1  0
 17 18  2  0
 18 19  1  0
 18 20  1  0
 20 21  2  0
 13 22  1  0
 22 23  1  0
  8  2  1  0
 23 10  1  0
 21 15  1  0
  1 24  1  0
  3 25  1  0
  4 26  1  0
  7 27  1  0
  9 28  1  0
  9 29  1  0
 11 30  1  0
 11 31  1  0
 12 32  1  0
 12 33  1  0
 14 34  1  0
 14 35  1  0
 16 36  1  0
 17 37  1  0
 20 38  1  0
 21 39  1  0
 22 40  1  0
 22 41  1  0
 23 42  1  0
 23 43  1  0
M  END
>  <Batch_No>  (359) 
OSSK_579680

>  <EC50_nM>  (359) 
ND

>  <Set>  (359) 
Probe-like

>  <Molecular_Weight>  (359) 
395.72119

>  <ALogP>  (359) 
4.615

$$$$
MMV665810
     RDKit          3D

 46 49  0  0  0  0  0  0  0  0999 V2000
    0.4940   -1.3583   -0.2746 O   0  0  0  0  0  0  0  0  0  0  0  0
    0.1515   -0.7876    0.7714 C   0  0  0  0  0  0  0  0  0  0  0  0
    1.1326   -0.6553    1.7977 N   0  0  0  0  0  0  0  0  0  0  0  0
    2.4263   -1.2069    1.4980 C   0  0  0  0  0  0  0  0  0  0  0  0
    2.7525   -2.5146    1.7961 C   0  0  0  0  0  0  0  0  0  0  0  0
    4.0358   -2.9577    1.4655 C   0  0  0  0  0  0  0  0  0  0  0  0
    4.9435   -2.1021    0.8579 C   0  0  0  0  0  0  0  0  0  0  0  0
    4.6032   -0.7975    0.5660 C   0  0  0  0  0  0  0  0  0  0  0  0
    3.3365   -0.3590    0.8919 C   0  0  0  0  0  0  0  0  0  0  0  0
    5.5440    0.1333   -0.0779 C   0  0  0  0  0  0  0  0  0  0  0  0
    5.3083    1.3588   -0.3831 N   0  0  0  0  0  0  0  0  0  0  0  0
    6.4745    1.9541   -1.0028 C   0  0  0  0  0  0  0  0  0  0  0  0
    7.5872    1.0463   -0.5300 C   0  0  0  0  0  0  0  0  0  0  0  0
    6.8834   -0.2265   -0.4550 N   0  0  0  0  0  0  0  0  0  0  0  0
   -1.1505   -0.2833    0.9572 N   0  0  0  0  0  0  0  0  0  0  0  0
   -2.2127   -0.3399    0.0435 C   0  0  0  0  0  0  0  0  0  0  0  0
   -2.1829   -0.8972   -1.2029 C   0  0  0  0  0  0  0  0  0  0  0  0
   -3.2876   -0.9147   -2.0589 C   0  0  0  0  0  0  0  0  0  0  0  0
   -4.4784   -0.3502   -1.6542 C   0  0  0  0  0  0  0  0  0  0  0  0
   -4.5259    0.2112   -0.4114 C   0  0  0  0  0  0  0  0  0  0  0  0
   -3.4331    0.2249    0.4272 C   0  0  0  0  0  0  0  0  0  0  0  0
   -5.7681    0.8264    0.0708 C   0  0  0  0  0  0  0  0  0  0  0  0
   -5.9609    1.3982    1.2291 N   0  0  0  0  0  0  0  0  0  0  0  0
   -7.3100    1.8919    1.3560 C   0  0  0  0  0  0  0  0  0  0  0  0
   -7.8036    1.9579   -0.0802 C   0  0  0  0  0  0  0  0  0  0  0  0
   -6.9894    0.8974   -0.6698 N   0  0  0  0  0  0  0  0  0  0  0  0
    0.9327   -0.1861    2.7181 H   0  0  0  0  0  0  0  0  0  0  0  0
    2.0277   -3.1594    2.2690 H   0  0  0  0  0  0  0  0  0  0  0  0
    4.3140   -3.9830    1.6910 H   0  0  0  0  0  0  0  0  0  0  0  0
    5.9436   -2.4194    0.5913 H   0  0  0  0  0  0  0  0  0  0  0  0
    3.0829    0.6667    0.6573 H   0  0  0  0  0  0  0  0  0  0  0  0
    6.4112    1.9256   -2.1276 H   0  0  0  0  0  0  0  0  0  0  0  0
    6.6329    3.0012   -0.6507 H   0  0  0  0  0  0  0  0  0  0  0  0
    7.9997    1.3569    0.4377 H   0  0  0  0  0  0  0  0  0  0  0  0
    8.3629    1.0097   -1.3367 H   0  0  0  0  0  0  0  0  0  0  0  0
    7.2760   -1.1776   -0.6368 H   0  0  0  0  0  0  0  0  0  0  0  0
   -1.3230    0.1860    1.8982 H   0  0  0  0  0  0  0  0  0  0  0  0
   -1.2950   -1.3543   -1.5873 H   0  0  0  0  0  0  0  0  0  0  0  0
   -3.2157   -1.3716   -3.0459 H   0  0  0  0  0  0  0  0  0  0  0  0
   -5.3190   -0.3750   -2.3317 H   0  0  0  0  0  0  0  0  0  0  0  0
   -3.5473    0.6963    1.4156 H   0  0  0  0  0  0  0  0  0  0  0  0
   -7.2638    2.9084    1.7906 H   0  0  0  0  0  0  0  0  0  0  0  0
   -7.9548    1.2659    1.9935 H   0  0  0  0  0  0  0  0  0  0  0  0
   -7.5205    2.8811   -0.5871 H   0  0  0  0  0  0  0  0  0  0  0  0
   -8.8630    1.6724   -0.1863 H   0  0  0  0  0  0  0  0  0  0  0  0
   -7.2519    0.3069   -1.4767 H   0  0  0  0  0  0  0  0  0  0  0  0
  1  2  2  0
  2  3  1  0
  3  4  1  0
  4  5  2  0
  5  6  1  0
  6  7  2  0
  7  8  1  0
  8  9  2  0
  8 10  1  0
 10 11  2  0
 11 12  1  0
 12 13  1  0
 13 14  1  0
  2 15  1  0
 15 16  1  0
 16 17  2  0
 17 18  1  0
 18 19  2  0
 19 20  1  0
 20 21  2  0
 20 22  1  0
 22 23  2  0
 23 24  1  0
 24 25  1  0
 25 26  1  0
  9  4  1  0
 14 10  1  0
 21 16  1  0
 26 22  1  0
  3 27  1  0
  5 28  1  0
  6 29  1  0
  7 30  1  0
  9 31  1  0
 12 32  1  0
 12 33  1  0
 13 34  1  0
 13 35  1  0
 14 36  1  0
 15 37  1  0
 17 38  1  0
 18 39  1  0
 19 40  1  0
 21 41  1  0
 24 42  1  0
 24 43  1  0
 25 44  1  0
 25 45  1  0
 26 46  1  0
M  END
>  <Batch_No>  (360) 
OSSL_134459

>  <EC50_nM>  (360) 
1010

>  <Set>  (360) 
Probe-like

>  <Molecular_Weight>  (360) 
348.4017

>  <ALogP>  (360) 
1.097

$$$$
MMV665927
     RDKit          3D

 26 26  0  0  0  0  0  0  0  0999 V2000
   -3.5858    1.8942   -1.2971 Cl  0  0  0  0  0  0  0  0  0  0  0  0
   -4.0688    0.7914    0.0349 C   0  0  0  0  0  0  0  0  0  0  0  0
   -2.8545    0.0862    0.5319 C   0  0  0  0  0  0  0  0  0  0  0  0
   -2.0709    0.7654    1.2488 O   0  0  0  0  0  0  0  0  0  0  0  0
   -2.5900   -1.2743    0.2248 N   0  0  0  0  0  0  0  0  0  0  0  0
   -1.4534   -2.0204    0.6694 C   0  0  0  0  0  0  0  0  0  0  0  0
   -0.1445   -1.5329    0.1743 C   0  0  0  0  0  0  0  0  0  0  0  0
    0.1709   -0.2247    0.5177 O   0  0  0  0  0  0  0  0  0  0  0  0
    1.4128    0.3167    0.1234 C   0  0  0  0  0  0  0  0  0  0  0  0
    2.3159   -0.4735   -0.6082 C   0  0  0  0  0  0  0  0  0  0  0  0
    3.5365    0.0606   -0.9875 C   0  0  0  0  0  0  0  0  0  0  0  0
    3.9004    1.3533   -0.6712 C   0  0  0  0  0  0  0  0  0  0  0  0
    5.4680    2.0070   -1.1579 Cl  0  0  0  0  0  0  0  0  0  0  0  0
    2.9943    2.1327    0.0538 C   0  0  0  0  0  0  0  0  0  0  0  0
    1.7788    1.6055    0.4352 C   0  0  0  0  0  0  0  0  0  0  0  0
    0.6857    2.6509    1.3507 Cl  0  0  0  0  0  0  0  0  0  0  0  0
   -4.8452    0.0740   -0.2849 H   0  0  0  0  0  0  0  0  0  0  0  0
   -4.5476    1.4296    0.8149 H   0  0  0  0  0  0  0  0  0  0  0  0
   -3.2913   -1.7540   -0.3751 H   0  0  0  0  0  0  0  0  0  0  0  0
   -1.4470   -2.1175    1.8021 H   0  0  0  0  0  0  0  0  0  0  0  0
   -1.5640   -3.0949    0.3280 H   0  0  0  0  0  0  0  0  0  0  0  0
   -0.0604   -1.6099   -0.9421 H   0  0  0  0  0  0  0  0  0  0  0  0
    0.6953   -2.1863    0.5319 H   0  0  0  0  0  0  0  0  0  0  0  0
    2.0490   -1.5115   -0.8777 H   0  0  0  0  0  0  0  0  0  0  0  0
    4.2715   -0.5176   -1.5508 H   0  0  0  0  0  0  0  0  0  0  0  0
    3.2442    3.1501    0.3174 H   0  0  0  0  0  0  0  0  0  0  0  0
  1  2  1  0
  2  3  1  0
  3  4  2  0
  3  5  1  0
  5  6  1  0
  6  7  1  0
  7  8  1  0
  8  9  1  0
  9 10  2  0
 10 11  1  0
 11 12  2  0
 12 13  1  0
 12 14  1  0
 14 15  2  0
 15 16  1  0
 15  9  1  0
  2 17  1  0
  2 18  1  0
  5 19  1  0
  6 20  1  0
  6 21  1  0
  7 22  1  0
  7 23  1  0
 10 24  1  0
 11 25  1  0
 14 26  1  0
M  END
>  <Batch_No>  (361) 
MS-0379

>  <EC50_nM>  (361) 
555

>  <Set>  (361) 
Probe-like

>  <Molecular_Weight>  (361) 
282.5509

>  <ALogP>  (361) 
2.867

$$$$
MMV667486
     RDKit          3D

 38 39  0  0  0  0  0  0  0  0999 V2000
    5.2001   -0.3074    0.0986 C   0  0  0  0  0  0  0  0  0  0  0  0
    4.8944    1.1739    0.1558 C   0  0  0  0  0  0  0  0  0  0  0  0
    3.7561    1.4476    0.9286 O   0  0  0  0  0  0  0  0  0  0  0  0
    2.4949    0.9721    0.6721 C   0  0  0  0  0  0  0  0  0  0  0  0
    2.1624    0.1547   -0.3869 C   0  0  0  0  0  0  0  0  0  0  0  0
    0.8821   -0.3059   -0.6152 C   0  0  0  0  0  0  0  0  0  0  0  0
   -0.1142    0.0757    0.2671 C   0  0  0  0  0  0  0  0  0  0  0  0
    0.1680    0.8986    1.3511 C   0  0  0  0  0  0  0  0  0  0  0  0
    1.4781    1.3325    1.5311 C   0  0  0  0  0  0  0  0  0  0  0  0
   -1.4589   -0.3913    0.0515 N   0  0  0  0  0  0  0  0  0  0  0  0
   -1.7944   -1.6218    0.6777 C   0  0  0  0  0  0  0  0  0  0  0  0
   -2.9661   -2.1518    0.5649 N   0  0  0  0  0  0  0  0  0  0  0  0
   -3.8908   -1.4203   -0.2259 C   0  0  0  0  0  0  0  0  0  0  0  0
   -3.6335   -0.3089   -0.8085 N   0  0  0  0  0  0  0  0  0  0  0  0
   -2.3752    0.3782   -0.7593 C   0  0  0  0  0  0  0  0  0  0  0  0
   -1.8171    0.6757   -2.1285 C   0  0  0  0  0  0  0  0  0  0  0  0
   -2.5983    1.7099   -0.0410 C   0  0  0  0  0  0  0  0  0  0  0  0
   -5.2023   -1.9938   -0.3643 N   0  0  0  0  0  0  0  0  0  0  0  0
   -0.8438   -2.3363    1.4677 N   0  0  0  0  0  0  0  0  0  0  0  0
    4.4158   -0.8726    0.6577 H   0  0  0  0  0  0  0  0  0  0  0  0
    5.2597   -0.7101   -0.9325 H   0  0  0  0  0  0  0  0  0  0  0  0
    6.1931   -0.5220    0.5864 H   0  0  0  0  0  0  0  0  0  0  0  0
    5.7657    1.7060    0.5500 H   0  0  0  0  0  0  0  0  0  0  0  0
    4.7892    1.4981   -0.9000 H   0  0  0  0  0  0  0  0  0  0  0  0
    2.9359   -0.1464   -1.0810 H   0  0  0  0  0  0  0  0  0  0  0  0
    0.7036   -0.9450   -1.4707 H   0  0  0  0  0  0  0  0  0  0  0  0
   -0.6206    1.1941    2.0401 H   0  0  0  0  0  0  0  0  0  0  0  0
    1.6558    1.9701    2.3846 H   0  0  0  0  0  0  0  0  0  0  0  0
   -1.2640   -0.1453   -2.5884 H   0  0  0  0  0  0  0  0  0  0  0  0
   -1.1904    1.5901   -2.0445 H   0  0  0  0  0  0  0  0  0  0  0  0
   -2.6570    0.9635   -2.8001 H   0  0  0  0  0  0  0  0  0  0  0  0
   -3.5213    2.1833   -0.4155 H   0  0  0  0  0  0  0  0  0  0  0  0
   -2.7858    1.4717    1.0242 H   0  0  0  0  0  0  0  0  0  0  0  0
   -1.7096    2.3534   -0.1055 H   0  0  0  0  0  0  0  0  0  0  0  0
   -5.7832   -2.0655    0.4897 H   0  0  0  0  0  0  0  0  0  0  0  0
   -5.5303   -2.3206   -1.3191 H   0  0  0  0  0  0  0  0  0  0  0  0
   -1.0671   -2.5387    2.4664 H   0  0  0  0  0  0  0  0  0  0  0  0
    0.0691   -2.6457    1.0217 H   0  0  0  0  0  0  0  0  0  0  0  0
  1  2  1  0
  2  3  1  0
  3  4  1  0
  4  5  2  0
  5  6  1  0
  6  7  2  0
  7  8  1  0
  8  9  2  0
  7 10  1  0
 10 11  1  0
 11 12  2  0
 12 13  1  0
 13 14  2  0
 14 15  1  0
 15 16  1  0
 15 17  1  0
 13 18  1  0
 11 19  1  0
  9  4  1  0
 15 10  1  0
  1 20  1  0
  1 21  1  0
  1 22  1  0
  2 23  1  0
  2 24  1  0
  5 25  1  0
  6 26  1  0
  8 27  1  0
  9 28  1  0
 16 29  1  0
 16 30  1  0
 16 31  1  0
 17 32  1  0
 17 33  1  0
 17 34  1  0
 18 35  1  0
 18 36  1  0
 19 37  1  0
 19 38  1  0
M  END
>  <Batch_No>  (362) 
5300-0193

>  <EC50_nM>  (362) 
ND

>  <Set>  (362) 
Probe-like

>  <Molecular_Weight>  (362) 
261.32286

>  <ALogP>  (362) 
1.291

$$$$
MMV667488
     RDKit          3D

 63 67  0  0  0  0  0  0  0  0999 V2000
   -0.0237   -1.6577   -0.1650 C   0  0  0  0  0  0  0  0  0  0  0  0
   -1.2741   -1.9981    0.3671 C   0  0  0  0  0  0  0  0  0  0  0  0
   -2.2270   -1.0171    0.6508 C   0  0  0  0  0  0  0  0  0  0  0  0
   -1.9424    0.3001    0.4077 C   0  0  0  0  0  0  0  0  0  0  0  0
   -2.8287    1.4144    0.6764 C   0  0  0  0  0  0  0  0  0  0  0  0
   -2.8934    1.7999    1.8856 O   0  0  0  0  0  0  0  0  0  0  0  0
   -3.5839    2.0522   -0.3359 N   0  0  0  0  0  0  0  0  0  0  0  0
   -4.4749    3.1579   -0.1430 C   0  0  0  0  0  0  0  0  0  0  0  0
   -5.7470    2.7456    0.4898 C   0  0  0  0  0  0  0  0  0  0  0  0
   -6.7829    2.2771   -0.3313 C   0  0  0  0  0  0  0  0  0  0  0  0
   -7.9387    1.9020    0.3371 C   0  0  0  0  0  0  0  0  0  0  0  0
   -8.0509    1.9890    1.7284 C   0  0  0  0  0  0  0  0  0  0  0  0
   -7.0478    2.4414    2.4822 N   0  0  0  0  0  0  0  0  0  0  0  0
   -5.9035    2.8174    1.8704 C   0  0  0  0  0  0  0  0  0  0  0  0
   -0.6948    0.6157   -0.1237 C   0  0  0  0  0  0  0  0  0  0  0  0
   -0.4141    1.8503   -0.3575 N   0  0  0  0  0  0  0  0  0  0  0  0
    0.1954   -0.3599   -0.3828 N   0  0  0  0  0  0  0  0  0  0  0  0
    1.4763    0.1237   -0.9526 C   0  0  0  0  0  0  0  0  0  0  0  0
    2.3011    0.4937    0.2418 C   0  0  0  0  0  0  0  0  0  0  0  0
    3.6232    1.0402   -0.0080 C   0  0  0  0  0  0  0  0  0  0  0  0
    3.7125    2.4226   -0.2282 C   0  0  0  0  0  0  0  0  0  0  0  0
    4.9328    3.0321   -0.4601 C   0  0  0  0  0  0  0  0  0  0  0  0
    4.8108    0.3426   -0.0379 C   0  0  0  0  0  0  0  0  0  0  0  0
    6.0228    0.9594   -0.2694 C   0  0  0  0  0  0  0  0  0  0  0  0
    6.1018    2.3239   -0.4856 C   0  0  0  0  0  0  0  0  0  0  0  0
    7.3445    2.8963   -0.7167 O   0  0  0  0  0  0  0  0  0  0  0  0
    7.4259    4.2750   -0.9446 C   0  0  0  0  0  0  0  0  0  0  0  0
   -1.5766   -3.3184    0.6165 C   0  0  0  0  0  0  0  0  0  0  0  0
   -2.6860   -3.6423    1.0920 O   0  0  0  0  0  0  0  0  0  0  0  0
   -0.6110   -4.2220    0.3193 N   0  0  0  0  0  0  0  0  0  0  0  0
   -0.9419   -5.5162    0.5836 C   0  0  0  0  0  0  0  0  0  0  0  0
   -0.0463   -6.5402    0.3330 C   0  0  0  0  0  0  0  0  0  0  0  0
    1.1868   -6.1803   -0.1949 C   0  0  0  0  0  0  0  0  0  0  0  0
    1.5278   -4.8715   -0.4648 C   0  0  0  0  0  0  0  0  0  0  0  0
    2.8626   -4.5813   -1.0216 C   0  0  0  0  0  0  0  0  0  0  0  0
    0.5857   -3.8781   -0.1918 C   0  0  0  0  0  0  0  0  0  0  0  0
    0.8970   -2.5939   -0.4412 N   0  0  0  0  0  0  0  0  0  0  0  0
   -3.1949   -1.2495    1.0663 H   0  0  0  0  0  0  0  0  0  0  0  0
   -3.4603    1.6543   -1.3150 H   0  0  0  0  0  0  0  0  0  0  0  0
   -3.9650    3.9541    0.4692 H   0  0  0  0  0  0  0  0  0  0  0  0
   -4.7094    3.6163   -1.1369 H   0  0  0  0  0  0  0  0  0  0  0  0
   -6.6680    2.2233   -1.3947 H   0  0  0  0  0  0  0  0  0  0  0  0
   -8.7857    1.5263   -0.2256 H   0  0  0  0  0  0  0  0  0  0  0  0
   -8.9565    1.6918    2.2394 H   0  0  0  0  0  0  0  0  0  0  0  0
   -5.1254    3.1836    2.5310 H   0  0  0  0  0  0  0  0  0  0  0  0
   -1.0739    2.6290   -0.1706 H   0  0  0  0  0  0  0  0  0  0  0  0
    1.9165   -0.7228   -1.5173 H   0  0  0  0  0  0  0  0  0  0  0  0
    1.2271    0.9132   -1.6479 H   0  0  0  0  0  0  0  0  0  0  0  0
    1.7075    1.1343    0.9504 H   0  0  0  0  0  0  0  0  0  0  0  0
    2.4355   -0.4679    0.8099 H   0  0  0  0  0  0  0  0  0  0  0  0
    2.8028    3.0303   -0.2190 H   0  0  0  0  0  0  0  0  0  0  0  0
    4.9257    4.1207   -0.6335 H   0  0  0  0  0  0  0  0  0  0  0  0
    4.7783   -0.7213    0.1239 H   0  0  0  0  0  0  0  0  0  0  0  0
    6.9407    0.3569   -0.2820 H   0  0  0  0  0  0  0  0  0  0  0  0
    7.1487    4.5478   -1.9966 H   0  0  0  0  0  0  0  0  0  0  0  0
    6.7750    4.8005   -0.2183 H   0  0  0  0  0  0  0  0  0  0  0  0
    8.4708    4.6703   -0.8169 H   0  0  0  0  0  0  0  0  0  0  0  0
   -1.8893   -5.7760    0.9802 H   0  0  0  0  0  0  0  0  0  0  0  0
   -0.2727   -7.5828    0.5322 H   0  0  0  0  0  0  0  0  0  0  0  0
    1.9381   -6.9535   -0.4106 H   0  0  0  0  0  0  0  0  0  0  0  0
    2.9157   -3.5503   -1.4379 H   0  0  0  0  0  0  0  0  0  0  0  0
    3.1253   -5.2693   -1.8574 H   0  0  0  0  0  0  0  0  0  0  0  0
    3.6760   -4.6548   -0.2476 H   0  0  0  0  0  0  0  0  0  0  0  0
  1  2  2  0
  2  3  1  0
  3  4  2  0
  4  5  1  0
  5  6  2  0
  5  7  1  0
  7  8  1  0
  8  9  1  0
  9 10  2  0
 10 11  1  0
 11 12  2  0
 12 13  1  0
  9 14  1  0
  4 15  1  0
 15 16  2  3
 15 17  1  0
 17 18  1  0
 18 19  1  0
 19 20  1  0
 20 21  2  0
 21 22  1  0
 20 23  1  0
 23 24  2  0
 24 25  1  0
 25 26  1  0
 26 27  1  0
  2 28  1  0
 28 29  2  0
 28 30  1  0
 30 31  1  0
 31 32  2  0
 32 33  1  0
 33 34  2  0
 34 35  1  0
 30 36  1  0
 36 37  2  0
 17  1  1  0
 37  1  1  0
 14 13  2  0
 25 22  2  0
 36 34  1  0
  3 38  1  0
  7 39  1  0
  8 40  1  0
  8 41  1  0
 10 42  1  0
 11 43  1  0
 12 44  1  0
 14 45  1  0
 16 46  1  0
 18 47  1  0
 18 48  1  0
 19 49  1  0
 19 50  1  0
 21 51  1  0
 22 52  1  0
 23 53  1  0
 24 54  1  0
 27 55  1  0
 27 56  1  0
 27 57  1  0
 31 58  1  0
 32 59  1  0
 33 60  1  0
 35 61  1  0
 35 62  1  0
 35 63  1  0
M  END
>  <Batch_No>  (363) 
STK706994

>  <EC50_nM>  (363) 
373

>  <Set>  (363) 
Probe-like

>  <Molecular_Weight>  (363) 
494.54443

>  <ALogP>  (363) 
2.021

$$$$
MMV006825
     RDKit          3D

 44 46  0  0  0  0  0  0  0  0999 V2000
    0.0336   -0.6086   -0.1710 N   0  0  0  0  0  0  0  0  0  0  0  0
   -0.8353   -1.6779   -0.2220 C   0  0  0  0  0  0  0  0  0  0  0  0
   -2.0574   -1.5655    0.4650 N   0  0  0  0  0  0  0  0  0  0  0  0
   -3.2029   -0.8363    0.1333 C   0  0  0  0  0  0  0  0  0  0  0  0
   -3.6103    0.1157    1.0892 C   0  0  0  0  0  0  0  0  0  0  0  0
   -4.7265    0.8673    0.8714 C   0  0  0  0  0  0  0  0  0  0  0  0
   -3.9772   -0.9504   -0.9903 C   0  0  0  0  0  0  0  0  0  0  0  0
   -5.1116   -0.1716   -1.1919 C   0  0  0  0  0  0  0  0  0  0  0  0
   -5.5096    0.7680   -0.2433 C   0  0  0  0  0  0  0  0  0  0  0  0
   -6.6409    1.5017   -0.5083 O   0  0  0  0  0  0  0  0  0  0  0  0
   -7.0976    2.4637    0.3999 C   0  0  0  0  0  0  0  0  0  0  0  0
   -0.4677   -2.8298   -0.8903 C   0  0  0  0  0  0  0  0  0  0  0  0
    0.7668   -2.8851   -1.4908 C   0  0  0  0  0  0  0  0  0  0  0  0
    1.2894   -4.0715   -2.2068 C   0  0  0  0  0  0  0  0  0  0  0  0
    1.5628   -1.8161   -1.4042 N   0  0  0  0  0  0  0  0  0  0  0  0
    1.2202   -0.6927   -0.7602 C   0  0  0  0  0  0  0  0  0  0  0  0
    2.2323    0.3373   -0.7315 N   0  0  0  0  0  0  0  0  0  0  0  0
    3.1764    0.2076    0.3703 C   0  0  0  0  0  0  0  0  0  0  0  0
    4.3211    1.1261    0.3346 C   0  0  0  0  0  0  0  0  0  0  0  0
    4.3616    2.3880    0.8742 C   0  0  0  0  0  0  0  0  0  0  0  0
    5.5255    3.1233    0.7923 C   0  0  0  0  0  0  0  0  0  0  0  0
    6.6739    2.6707    0.1965 C   0  0  0  0  0  0  0  0  0  0  0  0
    6.6401    1.4002   -0.3474 C   0  0  0  0  0  0  0  0  0  0  0  0
    5.4851    0.6558   -0.2744 C   0  0  0  0  0  0  0  0  0  0  0  0
   -2.1200   -2.1257    1.3786 H   0  0  0  0  0  0  0  0  0  0  0  0
   -3.0338    0.2503    2.0122 H   0  0  0  0  0  0  0  0  0  0  0  0
   -4.9855    1.5946    1.6448 H   0  0  0  0  0  0  0  0  0  0  0  0
   -3.6792   -1.6772   -1.7255 H   0  0  0  0  0  0  0  0  0  0  0  0
   -5.7161   -0.2836   -2.0997 H   0  0  0  0  0  0  0  0  0  0  0  0
   -8.1988    2.5974    0.2345 H   0  0  0  0  0  0  0  0  0  0  0  0
   -6.8648    2.2473    1.4510 H   0  0  0  0  0  0  0  0  0  0  0  0
   -6.5515    3.4160    0.1651 H   0  0  0  0  0  0  0  0  0  0  0  0
   -1.1121   -3.6925   -0.9546 H   0  0  0  0  0  0  0  0  0  0  0  0
    0.5103   -4.8481   -2.3429 H   0  0  0  0  0  0  0  0  0  0  0  0
    2.0652   -4.5655   -1.5476 H   0  0  0  0  0  0  0  0  0  0  0  0
    1.7032   -3.8308   -3.1966 H   0  0  0  0  0  0  0  0  0  0  0  0
    2.2551    1.0816   -1.4439 H   0  0  0  0  0  0  0  0  0  0  0  0
    3.5067   -0.8706    0.4236 H   0  0  0  0  0  0  0  0  0  0  0  0
    2.5797    0.3283    1.3122 H   0  0  0  0  0  0  0  0  0  0  0  0
    3.4586    2.7825    1.3610 H   0  0  0  0  0  0  0  0  0  0  0  0
    5.5377    4.1319    1.2292 H   0  0  0  0  0  0  0  0  0  0  0  0
    7.5606    3.2979    0.1624 H   0  0  0  0  0  0  0  0  0  0  0  0
    7.5395    0.9871   -0.8350 H   0  0  0  0  0  0  0  0  0  0  0  0
    5.4935   -0.3405   -0.7145 H   0  0  0  0  0  0  0  0  0  0  0  0
  1  2  2  0
  2  3  1  0
  3  4  1  0
  4  5  2  0
  5  6  1  0
  4  7  1  0
  7  8  2  0
  8  9  1  0
  9 10  1  0
 10 11  1  0
  2 12  1  0
 12 13  2  0
 13 14  1  0
 13 15  1  0
 15 16  2  0
 16 17  1  0
 17 18  1  0
 18 19  1  0
 19 20  2  0
 20 21  1  0
 21 22  2  0
 22 23  1  0
 23 24  2  0
 16  1  1  0
  9  6  2  0
 24 19  1  0
  3 25  1  0
  5 26  1  0
  6 27  1  0
  7 28  1  0
  8 29  1  0
 11 30  1  0
 11 31  1  0
 11 32  1  0
 12 33  1  0
 14 34  1  0
 14 35  1  0
 14 36  1  0
 17 37  1  0
 18 38  1  0
 18 39  1  0
 20 40  1  0
 21 41  1  0
 22 42  1  0
 23 43  1  0
 24 44  1  0
M  END
>  <Batch_No>  (364) 
STK839722

>  <EC50_nM>  (364) 
467

>  <Set>  (364) 
Probe-like

>  <Molecular_Weight>  (364) 
320.3883

>  <ALogP>  (364) 
3.21

$$$$
MMV009085
     RDKit          3D

 52 55  0  0  0  0  0  0  0  0999 V2000
   -7.1331    2.2615    0.0732 O   0  0  0  0  0  0  0  0  0  0  0  0
   -6.8951    0.9187   -0.2077 C   0  0  0  0  0  0  0  0  0  0  0  0
   -6.1098    0.2275    0.8811 C   0  0  0  0  0  0  0  0  0  0  0  0
   -5.8232   -1.1965    0.5856 C   0  0  0  0  0  0  0  0  0  0  0  0
   -4.9554   -1.4936   -0.5858 C   0  0  0  0  0  0  0  0  0  0  0  0
   -3.6125   -1.0119   -0.5038 N   0  0  0  0  0  0  0  0  0  0  0  0
   -2.6478   -1.8984    0.1140 C   0  0  0  0  0  0  0  0  0  0  0  0
   -3.0104   -3.0199    0.5512 O   0  0  0  0  0  0  0  0  0  0  0  0
   -1.2454   -1.5207    0.2453 C   0  0  0  0  0  0  0  0  0  0  0  0
   -0.3763   -2.4096    0.8435 C   0  0  0  0  0  0  0  0  0  0  0  0
    0.9595   -2.0930    0.9885 C   0  0  0  0  0  0  0  0  0  0  0  0
    1.3952   -0.8666    0.5189 C   0  0  0  0  0  0  0  0  0  0  0  0
    2.8189   -0.5741    0.6942 C   0  0  0  0  0  0  0  0  0  0  0  0
    3.6150   -1.3888    1.2424 O   0  0  0  0  0  0  0  0  0  0  0  0
    3.3027    0.6706    0.2267 N   0  0  0  0  0  0  0  0  0  0  0  0
    4.7274    0.9530    0.4069 C   0  0  0  0  0  0  0  0  0  0  0  0
    5.5001    0.4641   -0.8061 C   0  0  0  0  0  0  0  0  0  0  0  0
    6.9693    0.7435   -0.6442 C   0  0  0  0  0  0  0  0  0  0  0  0
    7.5642    0.0729    0.5558 C   0  0  0  0  0  0  0  0  0  0  0  0
    7.4193   -1.3232    0.4700 O   0  0  0  0  0  0  0  0  0  0  0  0
    2.4401    1.6259   -0.4007 C   0  0  0  0  0  0  0  0  0  0  0  0
    2.8691    2.7219   -0.8116 O   0  0  0  0  0  0  0  0  0  0  0  0
    1.0328    1.2655   -0.5411 C   0  0  0  0  0  0  0  0  0  0  0  0
    0.1258    2.1319   -1.1373 C   0  0  0  0  0  0  0  0  0  0  0  0
   -1.2033    1.7767   -1.2631 C   0  0  0  0  0  0  0  0  0  0  0  0
   -1.6827    0.5608   -0.8079 C   0  0  0  0  0  0  0  0  0  0  0  0
   -3.1118    0.2187   -0.9615 C   0  0  0  0  0  0  0  0  0  0  0  0
   -3.8244    1.0799   -1.5144 O   0  0  0  0  0  0  0  0  0  0  0  0
   -0.7867   -0.3040   -0.2149 C   0  0  0  0  0  0  0  0  0  0  0  0
    0.5447    0.0377   -0.0823 C   0  0  0  0  0  0  0  0  0  0  0  0
   -7.2679    2.8054   -0.7183 H   0  0  0  0  0  0  0  0  0  0  0  0
   -7.9119    0.4408   -0.3159 H   0  0  0  0  0  0  0  0  0  0  0  0
   -6.4185    0.7791   -1.1829 H   0  0  0  0  0  0  0  0  0  0  0  0
   -5.2339    0.8122    1.1925 H   0  0  0  0  0  0  0  0  0  0  0  0
   -6.7906    0.2392    1.7820 H   0  0  0  0  0  0  0  0  0  0  0  0
   -6.8217   -1.6806    0.3569 H   0  0  0  0  0  0  0  0  0  0  0  0
   -5.4699   -1.7552    1.4799 H   0  0  0  0  0  0  0  0  0  0  0  0
   -4.9360   -2.6149   -0.6889 H   0  0  0  0  0  0  0  0  0  0  0  0
   -5.4652   -1.1647   -1.5303 H   0  0  0  0  0  0  0  0  0  0  0  0
   -0.6985   -3.3733    1.2168 H   0  0  0  0  0  0  0  0  0  0  0  0
    1.6349   -2.8002    1.4609 H   0  0  0  0  0  0  0  0  0  0  0  0
    4.8347    2.0340    0.5577 H   0  0  0  0  0  0  0  0  0  0  0  0
    5.0945    0.4116    1.3021 H   0  0  0  0  0  0  0  0  0  0  0  0
    5.3215   -0.6136   -0.9629 H   0  0  0  0  0  0  0  0  0  0  0  0
    5.1507    0.9881   -1.7183 H   0  0  0  0  0  0  0  0  0  0  0  0
    7.0940    1.8354   -0.5298 H   0  0  0  0  0  0  0  0  0  0  0  0
    7.5034    0.3414   -1.5282 H   0  0  0  0  0  0  0  0  0  0  0  0
    7.1491    0.4186    1.5136 H   0  0  0  0  0  0  0  0  0  0  0  0
    8.6778    0.2351    0.4763 H   0  0  0  0  0  0  0  0  0  0  0  0
    7.0591   -1.5510   -0.4094 H   0  0  0  0  0  0  0  0  0  0  0  0
    0.4985    3.0995   -1.5014 H   0  0  0  0  0  0  0  0  0  0  0  0
   -1.8700    2.4829   -1.7332 H   0  0  0  0  0  0  0  0  0  0  0  0
  1  2  1  0
  2  3  1  0
  3  4  1  0
  4  5  1  0
  5  6  1  0
  6  7  1  0
  7  8  2  0
  7  9  1  0
  9 10  2  0
 10 11  1  0
 11 12  2  0
 12 13  1  0
 13 14  2  0
 13 15  1  0
 15 16  1  0
 16 17  1  0
 17 18  1  0
 18 19  1  0
 19 20  1  0
 15 21  1  0
 21 22  2  0
 21 23  1  0
 23 24  2  0
 24 25  1  0
 25 26  2  0
 26 27  1  0
 27 28  2  0
 26 29  1  0
 29 30  2  0
 27  6  1  0
 29  9  1  0
 30 12  1  0
 30 23  1  0
  1 31  1  0
  2 32  1  0
  2 33  1  0
  3 34  1  0
  3 35  1  0
  4 36  1  0
  4 37  1  0
  5 38  1  0
  5 39  1  0
 10 40  1  0
 11 41  1  0
 16 42  1  0
 16 43  1  0
 17 44  1  0
 17 45  1  0
 18 46  1  0
 18 47  1  0
 19 48  1  0
 19 49  1  0
 20 50  1  0
 24 51  1  0
 25 52  1  0
M  END
>  <Batch_No>  (365) 
STK843110

>  <EC50_nM>  (365) 
795

>  <Set>  (365) 
Probe-like

>  <Molecular_Weight>  (365) 
410.41987

>  <ALogP>  (365) 
1.009

$$$$
MMV007591
     RDKit          3D

 80 81  0  0  0  0  0  0  0  0999 V2000
    4.8441    4.6932   -3.6205 C   0  0  0  0  0  0  0  0  0  0  0  0
    3.8443    3.7259   -3.5840 O   0  0  0  0  0  0  0  0  0  0  0  0
    3.6545    2.7675   -2.6175 C   0  0  0  0  0  0  0  0  0  0  0  0
    4.4416    2.6085   -1.5088 C   0  0  0  0  0  0  0  0  0  0  0  0
    4.2019    1.6155   -0.5545 C   0  0  0  0  0  0  0  0  0  0  0  0
    3.1234    0.7288   -0.7021 C   0  0  0  0  0  0  0  0  0  0  0  0
    2.3673    0.9284   -1.8279 C   0  0  0  0  0  0  0  0  0  0  0  0
    2.5952    1.9016   -2.7711 C   0  0  0  0  0  0  0  0  0  0  0  0
    2.9559   -0.2712    0.2936 C   0  0  0  0  0  0  0  0  0  0  0  0
    3.9519   -0.3425    1.1524 O   0  0  0  0  0  0  0  0  0  0  0  0
    1.9025   -1.2484    0.5740 C   0  0  0  0  0  0  0  0  0  0  0  0
    0.6808   -0.7399    1.2341 C   0  0  0  0  0  0  0  0  0  0  0  0
   -0.2797    0.1747    0.6447 C   0  0  0  0  0  0  0  0  0  0  0  0
   -1.3403   -0.2825   -0.2882 C   0  0  0  0  0  0  0  0  0  0  0  0
   -1.1016   -0.9739   -1.5544 C   0  0  0  0  0  0  0  0  0  0  0  0
   -2.1820   -1.4766   -2.3072 N   0  0  0  0  0  0  0  0  0  0  0  0
   -3.1633   -0.8710   -3.0280 C   0  0  0  0  0  0  0  0  0  0  0  0
   -2.7492    0.0045   -4.2072 C   0  0  0  0  0  0  0  0  0  0  0  0
   -4.3122   -0.2055   -2.2999 C   0  0  0  0  0  0  0  0  0  0  0  0
   -3.9080   -2.0673   -3.7676 C   0  0  0  0  0  0  0  0  0  0  0  0
   -2.0514    1.0519   -0.6728 C   0  0  0  0  0  0  0  0  0  0  0  0
   -1.7409    1.5913   -1.7607 O   0  0  0  0  0  0  0  0  0  0  0  0
   -3.0319    1.6363    0.2030 C   0  0  0  0  0  0  0  0  0  0  0  0
   -3.4605    1.1313    1.4001 C   0  0  0  0  0  0  0  0  0  0  0  0
   -4.4185    1.7609    2.1919 C   0  0  0  0  0  0  0  0  0  0  0  0
   -4.9689    2.9671    1.7408 C   0  0  0  0  0  0  0  0  0  0  0  0
   -5.9369    3.6453    2.4931 O   0  0  0  0  0  0  0  0  0  0  0  0
   -6.3858    3.1380    3.7176 C   0  0  0  0  0  0  0  0  0  0  0  0
   -4.5566    3.4973    0.5415 C   0  0  0  0  0  0  0  0  0  0  0  0
   -3.6075    2.8394   -0.2057 C   0  0  0  0  0  0  0  0  0  0  0  0
    2.5045   -2.4427    1.3216 C   0  0  0  0  0  0  0  0  0  0  0  0
    3.1090   -2.0933    2.5647 N   0  0  0  0  0  0  0  0  0  0  0  0
    3.6828   -3.2334    3.2569 C   0  0  0  0  0  0  0  0  0  0  0  0
    4.7537   -3.9046    2.4241 C   0  0  0  0  0  0  0  0  0  0  0  0
    4.3275   -2.8081    4.5576 C   0  0  0  0  0  0  0  0  0  0  0  0
    2.6309   -4.2695    3.5872 C   0  0  0  0  0  0  0  0  0  0  0  0
    5.1203    4.8327   -4.7036 H   0  0  0  0  0  0  0  0  0  0  0  0
    4.4467    5.6653   -3.2145 H   0  0  0  0  0  0  0  0  0  0  0  0
    5.7841    4.4323   -3.1098 H   0  0  0  0  0  0  0  0  0  0  0  0
    5.2773    3.2900   -1.3888 H   0  0  0  0  0  0  0  0  0  0  0  0
    4.8849    1.5900    0.2693 H   0  0  0  0  0  0  0  0  0  0  0  0
    1.5520    0.2615   -1.9903 H   0  0  0  0  0  0  0  0  0  0  0  0
    1.9391    1.9776   -3.6241 H   0  0  0  0  0  0  0  0  0  0  0  0
    1.6062   -1.6605   -0.4464 H   0  0  0  0  0  0  0  0  0  0  0  0
    0.1389   -1.7057    1.5951 H   0  0  0  0  0  0  0  0  0  0  0  0
    1.0012   -0.3514    2.2884 H   0  0  0  0  0  0  0  0  0  0  0  0
    0.2394    1.0373    0.0951 H   0  0  0  0  0  0  0  0  0  0  0  0
   -0.7682    0.7578    1.4979 H   0  0  0  0  0  0  0  0  0  0  0  0
   -2.0888   -0.8439    0.3476 H   0  0  0  0  0  0  0  0  0  0  0  0
   -0.3938   -1.8365   -1.3434 H   0  0  0  0  0  0  0  0  0  0  0  0
   -0.4774   -0.2806   -2.2184 H   0  0  0  0  0  0  0  0  0  0  0  0
   -2.2346   -2.5480   -2.2491 H   0  0  0  0  0  0  0  0  0  0  0  0
   -1.6760    0.2847   -4.1676 H   0  0  0  0  0  0  0  0  0  0  0  0
   -3.3384    0.9449   -4.2358 H   0  0  0  0  0  0  0  0  0  0  0  0
   -2.8812   -0.4910   -5.1868 H   0  0  0  0  0  0  0  0  0  0  0  0
   -4.3651   -0.5300   -1.2466 H   0  0  0  0  0  0  0  0  0  0  0  0
   -4.3062    0.9123   -2.4200 H   0  0  0  0  0  0  0  0  0  0  0  0
   -5.2844   -0.5186   -2.7478 H   0  0  0  0  0  0  0  0  0  0  0  0
   -4.8145   -1.6197   -4.2168 H   0  0  0  0  0  0  0  0  0  0  0  0
   -4.1257   -2.8133   -2.9916 H   0  0  0  0  0  0  0  0  0  0  0  0
   -3.2664   -2.4438   -4.5580 H   0  0  0  0  0  0  0  0  0  0  0  0
   -3.0553    0.2068    1.7654 H   0  0  0  0  0  0  0  0  0  0  0  0
   -4.7331    1.3311    3.1348 H   0  0  0  0  0  0  0  0  0  0  0  0
   -7.2495    3.7640    4.0252 H   0  0  0  0  0  0  0  0  0  0  0  0
   -6.6541    2.0740    3.5456 H   0  0  0  0  0  0  0  0  0  0  0  0
   -5.5594    3.1519    4.4478 H   0  0  0  0  0  0  0  0  0  0  0  0
   -4.9605    4.4358    0.1523 H   0  0  0  0  0  0  0  0  0  0  0  0
   -3.3071    3.3010   -1.1610 H   0  0  0  0  0  0  0  0  0  0  0  0
    3.1813   -2.9739    0.6304 H   0  0  0  0  0  0  0  0  0  0  0  0
    1.6452   -3.1244    1.4941 H   0  0  0  0  0  0  0  0  0  0  0  0
    2.3943   -1.6510    3.1749 H   0  0  0  0  0  0  0  0  0  0  0  0
    5.6134   -4.2699    3.0216 H   0  0  0  0  0  0  0  0  0  0  0  0
    5.1285   -3.1779    1.6686 H   0  0  0  0  0  0  0  0  0  0  0  0
    4.3681   -4.7978    1.8921 H   0  0  0  0  0  0  0  0  0  0  0  0
    3.6075   -2.2814    5.2101 H   0  0  0  0  0  0  0  0  0  0  0  0
    4.7527   -3.7085    5.0410 H   0  0  0  0  0  0  0  0  0  0  0  0
    5.1835   -2.1515    4.2918 H   0  0  0  0  0  0  0  0  0  0  0  0
    1.7899   -3.8694    4.1480 H   0  0  0  0  0  0  0  0  0  0  0  0
    2.3694   -4.7613    2.6342 H   0  0  0  0  0  0  0  0  0  0  0  0
    3.1394   -5.0182    4.2283 H   0  0  0  0  0  0  0  0  0  0  0  0
  1  2  1  0
  2  3  1  0
  3  4  2  0
  4  5  1  0
  5  6  2  0
  6  7  1  0
  7  8  2  0
  6  9  1  0
  9 10  2  0
  9 11  1  0
 11 12  1  0
 12 13  1  0
 13 14  1  0
 14 15  1  0
 15 16  1  0
 16 17  1  0
 17 18  1  0
 17 19  1  0
 17 20  1  0
 14 21  1  0
 21 22  2  0
 21 23  1  0
 23 24  2  0
 24 25  1  0
 25 26  2  0
 26 27  1  0
 27 28  1  0
 26 29  1  0
 29 30  2  0
 11 31  1  0
 31 32  1  0
 32 33  1  0
 33 34  1  0
 33 35  1  0
 33 36  1  0
  8  3  1  0
 30 23  1  0
  1 37  1  0
  1 38  1  0
  1 39  1  0
  4 40  1  0
  5 41  1  0
  7 42  1  0
  8 43  1  0
 11 44  1  0
 12 45  1  0
 12 46  1  0
 13 47  1  0
 13 48  1  0
 14 49  1  0
 15 50  1  0
 15 51  1  0
 16 52  1  0
 18 53  1  0
 18 54  1  0
 18 55  1  0
 19 56  1  0
 19 57  1  0
 19 58  1  0
 20 59  1  0
 20 60  1  0
 20 61  1  0
 24 62  1  0
 25 63  1  0
 28 64  1  0
 28 65  1  0
 28 66  1  0
 29 67  1  0
 30 68  1  0
 31 69  1  0
 31 70  1  0
 32 71  1  0
 34 72  1  0
 34 73  1  0
 34 74  1  0
 35 75  1  0
 35 76  1  0
 35 77  1  0
 36 78  1  0
 36 79  1  0
 36 80  1  0
M  END
>  <Batch_No>  (366) 
STK539983

>  <EC50_nM>  (366) 
ND

>  <Set>  (366) 
Probe-like

>  <Molecular_Weight>  (366) 
496.68135

>  <ALogP>  (366) 
4.959

$$$$
MMV128432
     RDKit          3D

 42 43  0  0  0  0  0  0  0  0999 V2000
   -2.5016   -1.5311   -2.8677 C   0  0  0  0  0  0  0  0  0  0  0  0
   -3.4070   -0.7396   -2.1048 O   0  0  0  0  0  0  0  0  0  0  0  0
   -2.9941   -0.2179   -0.8858 C   0  0  0  0  0  0  0  0  0  0  0  0
   -1.7404   -0.4332   -0.3787 C   0  0  0  0  0  0  0  0  0  0  0  0
   -1.3843    0.1187    0.8547 C   0  0  0  0  0  0  0  0  0  0  0  0
   -0.0013   -0.1693    1.3216 C   0  0  0  0  0  0  0  0  0  0  0  0
    0.9874    0.7490    0.9498 N   0  0  0  0  0  0  0  0  0  0  0  0
    1.2725    1.0492   -0.3798 C   0  0  0  0  0  0  0  0  0  0  0  0
    1.8879    0.0375   -1.2652 C   0  0  0  0  0  0  0  0  0  0  0  0
    3.2158   -0.4374   -0.7968 C   0  0  0  0  0  0  0  0  0  0  0  0
    3.2633   -1.5152    0.0408 C   0  0  0  0  0  0  0  0  0  0  0  0
    4.4565   -2.0320    0.5269 C   0  0  0  0  0  0  0  0  0  0  0  0
    5.6352   -1.4286    0.1452 C   0  0  0  0  0  0  0  0  0  0  0  0
    7.1851   -2.0357    0.7253 Cl  0  0  0  0  0  0  0  0  0  0  0  0
    5.6089   -0.3267   -0.7093 C   0  0  0  0  0  0  0  0  0  0  0  0
    4.4056    0.1756   -1.1853 C   0  0  0  0  0  0  0  0  0  0  0  0
   -2.2814    0.8807    1.5718 C   0  0  0  0  0  0  0  0  0  0  0  0
   -3.5420    1.0913    1.0509 C   0  0  0  0  0  0  0  0  0  0  0  0
   -4.5092    1.8442    1.7021 O   0  0  0  0  0  0  0  0  0  0  0  0
   -4.1532    2.4034    2.9526 C   0  0  0  0  0  0  0  0  0  0  0  0
   -3.9043    0.5410   -0.1837 C   0  0  0  0  0  0  0  0  0  0  0  0
   -5.1890    0.7640   -0.6995 O   0  0  0  0  0  0  0  0  0  0  0  0
   -2.0367   -2.3397   -2.2336 H   0  0  0  0  0  0  0  0  0  0  0  0
   -3.0387   -2.0934   -3.6654 H   0  0  0  0  0  0  0  0  0  0  0  0
   -1.6779   -0.9274   -3.2966 H   0  0  0  0  0  0  0  0  0  0  0  0
   -1.0538   -1.0360   -0.9612 H   0  0  0  0  0  0  0  0  0  0  0  0
    0.2523   -1.2530    1.1904 H   0  0  0  0  0  0  0  0  0  0  0  0
   -0.0836   -0.0908    2.4494 H   0  0  0  0  0  0  0  0  0  0  0  0
    1.5648    1.1818    1.6989 H   0  0  0  0  0  0  0  0  0  0  0  0
    0.3650    1.4913   -0.8520 H   0  0  0  0  0  0  0  0  0  0  0  0
    1.9933    1.9241   -0.3640 H   0  0  0  0  0  0  0  0  0  0  0  0
    1.2525   -0.8095   -1.5775 H   0  0  0  0  0  0  0  0  0  0  0  0
    2.1198    0.5591   -2.2432 H   0  0  0  0  0  0  0  0  0  0  0  0
    2.3667   -2.0365    0.3783 H   0  0  0  0  0  0  0  0  0  0  0  0
    4.5140   -2.8778    1.1852 H   0  0  0  0  0  0  0  0  0  0  0  0
    6.5048    0.1773   -1.0332 H   0  0  0  0  0  0  0  0  0  0  0  0
    4.3624    1.0403   -1.8579 H   0  0  0  0  0  0  0  0  0  0  0  0
   -1.9970    1.3010    2.5218 H   0  0  0  0  0  0  0  0  0  0  0  0
   -3.7218    1.5831    3.5705 H   0  0  0  0  0  0  0  0  0  0  0  0
   -5.1194    2.6486    3.4849 H   0  0  0  0  0  0  0  0  0  0  0  0
   -3.5136    3.2978    2.8773 H   0  0  0  0  0  0  0  0  0  0  0  0
   -5.3636    1.0201   -1.6571 H   0  0  0  0  0  0  0  0  0  0  0  0
  1  2  1  0
  2  3  1  0
  3  4  2  0
  4  5  1  0
  5  6  1  0
  6  7  1  0
  7  8  1  0
  8  9  1  0
  9 10  1  0
 10 11  2  0
 11 12  1  0
 12 13  2  0
 13 14  1  0
 13 15  1  0
 15 16  2  0
  5 17  2  0
 17 18  1  0
 18 19  1  0
 19 20  1  0
 18 21  2  0
 21 22  1  0
 21  3  1  0
 16 10  1  0
  1 23  1  0
  1 24  1  0
  1 25  1  0
  4 26  1  0
  6 27  1  0
  6 28  1  0
  7 29  1  0
  8 30  1  0
  8 31  1  0
  9 32  1  0
  9 33  1  0
 11 34  1  0
 12 35  1  0
 15 36  1  0
 16 37  1  0
 17 38  1  0
 20 39  1  0
 20 40  1  0
 20 41  1  0
 22 42  1  0
M  END
>  <Batch_No>  (367) 
STK325163

>  <EC50_nM>  (367) 
1790

>  <Set>  (367) 
Probe-like

>  <Molecular_Weight>  (367) 
321.79859

>  <ALogP>  (367) 
3.661

$$$$
MMV665852
     RDKit          3D

 28 29  0  0  0  0  0  0  0  0999 V2000
    6.4124    1.0893    0.9600 Cl  0  0  0  0  0  0  0  0  0  0  0  0
    4.8572    0.4884    0.3906 C   0  0  0  0  0  0  0  0  0  0  0  0
    4.3081    0.9115   -0.8049 C   0  0  0  0  0  0  0  0  0  0  0  0
    3.0875    0.4144   -1.2119 C   0  0  0  0  0  0  0  0  0  0  0  0
    2.4600   -0.5047   -0.3823 C   0  0  0  0  0  0  0  0  0  0  0  0
    1.1918   -1.0464   -0.7656 N   0  0  0  0  0  0  0  0  0  0  0  0
   -0.0082   -0.3854   -0.3617 C   0  0  0  0  0  0  0  0  0  0  0  0
    0.1351    0.6589    0.3239 O   0  0  0  0  0  0  0  0  0  0  0  0
   -1.2700   -0.9035   -0.7294 N   0  0  0  0  0  0  0  0  0  0  0  0
   -2.4778   -0.2653   -0.3404 C   0  0  0  0  0  0  0  0  0  0  0  0
   -3.0738    0.6975   -1.1147 C   0  0  0  0  0  0  0  0  0  0  0  0
   -4.2637    1.2976   -0.6889 C   0  0  0  0  0  0  0  0  0  0  0  0
   -4.8266    0.9007    0.5280 C   0  0  0  0  0  0  0  0  0  0  0  0
   -6.3322    1.6521    1.0787 Cl  0  0  0  0  0  0  0  0  0  0  0  0
   -4.2326   -0.0707    1.3173 C   0  0  0  0  0  0  0  0  0  0  0  0
   -4.9124   -0.5893    2.8454 Cl  0  0  0  0  0  0  0  0  0  0  0  0
   -3.0543   -0.6391    0.8571 C   0  0  0  0  0  0  0  0  0  0  0  0
    2.9928   -0.9335    0.8063 C   0  0  0  0  0  0  0  0  0  0  0  0
    4.2172   -0.4261    1.2009 C   0  0  0  0  0  0  0  0  0  0  0  0
    4.8791   -0.9856    2.7196 Cl  0  0  0  0  0  0  0  0  0  0  0  0
    4.8408    1.6414   -1.4304 H   0  0  0  0  0  0  0  0  0  0  0  0
    2.6329    0.7284   -2.1449 H   0  0  0  0  0  0  0  0  0  0  0  0
    1.1958   -1.9200   -1.3363 H   0  0  0  0  0  0  0  0  0  0  0  0
   -1.2883   -1.7857   -1.3061 H   0  0  0  0  0  0  0  0  0  0  0  0
   -2.6185    0.9844   -2.0480 H   0  0  0  0  0  0  0  0  0  0  0  0
   -4.7600    2.0543   -1.2664 H   0  0  0  0  0  0  0  0  0  0  0  0
   -2.5708   -1.4125    1.4737 H   0  0  0  0  0  0  0  0  0  0  0  0
    2.4785   -1.6511    1.4304 H   0  0  0  0  0  0  0  0  0  0  0  0
  1  2  1  0
  2  3  2  0
  3  4  1  0
  4  5  2  0
  5  6  1  0
  6  7  1  0
  7  8  2  0
  7  9  1  0
  9 10  1  0
 10 11  2  0
 11 12  1  0
 12 13  2  0
 13 14  1  0
 13 15  1  0
 15 16  1  0
 15 17  2  0
  5 18  1  0
 18 19  2  0
 19 20  1  0
 19  2  1  0
 17 10  1  0
  3 21  1  0
  4 22  1  0
  6 23  1  0
  9 24  1  0
 11 25  1  0
 12 26  1  0
 17 27  1  0
 18 28  1  0
M  END
>  <Batch_No>  (368) 
OSSK_264366

>  <EC50_nM>  (368) 
1160

>  <Set>  (368) 
Probe-like

>  <Molecular_Weight>  (368) 
350.02742

>  <ALogP>  (368) 
5.18

$$$$
MMV396717
     RDKit          3D

 58 62  0  0  0  0  0  0  0  0999 V2000
    0.6905    0.7369   -3.0929 C   0  0  0  0  0  0  0  0  0  0  0  0
    1.5438    1.6610   -3.5455 N   0  0  0  0  0  0  0  0  0  0  0  0
    2.3123    2.0057   -2.5432 N   0  0  0  0  0  0  0  0  0  0  0  0
    1.9824    1.3219   -1.4254 C   0  0  0  0  0  0  0  0  0  0  0  0
    2.6818    1.5185   -0.1631 C   0  0  0  0  0  0  0  0  0  0  0  0
    2.7891    2.7810    0.4303 C   0  0  0  0  0  0  0  0  0  0  0  0
    2.2105    3.8898   -0.1843 O   0  0  0  0  0  0  0  0  0  0  0  0
    3.4807    2.9116    1.6406 C   0  0  0  0  0  0  0  0  0  0  0  0
    4.0582    1.8223    2.2601 C   0  0  0  0  0  0  0  0  0  0  0  0
    4.7996    1.9090    3.5424 C   0  0  0  0  0  0  0  0  0  0  0  0
    3.9550    0.5759    1.6792 C   0  0  0  0  0  0  0  0  0  0  0  0
    4.6611   -0.8535    2.4062 Cl  0  0  0  0  0  0  0  0  0  0  0  0
    3.2725    0.4569    0.4875 C   0  0  0  0  0  0  0  0  0  0  0  0
   -0.3941   -0.1174   -3.4935 C   0  0  0  0  0  0  0  0  0  0  0  0
   -0.9012   -0.1862   -4.6267 O   0  0  0  0  0  0  0  0  0  0  0  0
    0.9312    0.4848   -1.7354 C   0  0  0  0  0  0  0  0  0  0  0  0
   -0.0098   -0.5176   -1.2269 C   0  0  0  0  0  0  0  0  0  0  0  0
    0.6570   -1.7546   -0.7128 C   0  0  0  0  0  0  0  0  0  0  0  0
    1.1560   -2.7369   -1.5317 C   0  0  0  0  0  0  0  0  0  0  0  0
    1.7501   -3.8340   -0.9227 C   0  0  0  0  0  0  0  0  0  0  0  0
    1.8408   -3.9439    0.4500 C   0  0  0  0  0  0  0  0  0  0  0  0
    1.3435   -2.9658    1.2581 C   0  0  0  0  0  0  0  0  0  0  0  0
    0.7502   -1.8682    0.6748 C   0  0  0  0  0  0  0  0  0  0  0  0
    0.2567   -0.8964    1.4756 F   0  0  0  0  0  0  0  0  0  0  0  0
   -0.8167   -0.9003   -2.3622 N   0  0  0  0  0  0  0  0  0  0  0  0
   -1.8517   -1.9028   -2.4161 C   0  0  0  0  0  0  0  0  0  0  0  0
   -3.2134   -1.3878   -2.1762 C   0  0  0  0  0  0  0  0  0  0  0  0
   -3.5071   -0.7339   -0.9164 C   0  0  0  0  0  0  0  0  0  0  0  0
   -3.4221    0.6460   -0.6984 C   0  0  0  0  0  0  0  0  0  0  0  0
   -3.7234    1.1948    0.5459 C   0  0  0  0  0  0  0  0  0  0  0  0
   -3.9026   -1.5101    0.1630 C   0  0  0  0  0  0  0  0  0  0  0  0
   -4.2013   -0.9765    1.3918 C   0  0  0  0  0  0  0  0  0  0  0  0
   -4.1107    0.3925    1.5859 C   0  0  0  0  0  0  0  0  0  0  0  0
   -4.4162    0.9174    2.8337 O   0  0  0  0  0  0  0  0  0  0  0  0
   -4.3164    2.3253    3.0057 C   0  0  0  0  0  0  0  0  0  0  0  0
    1.6060    2.0510   -4.5102 H   0  0  0  0  0  0  0  0  0  0  0  0
    1.2173    4.0794   -0.0653 H   0  0  0  0  0  0  0  0  0  0  0  0
    3.5693    3.9038    2.1147 H   0  0  0  0  0  0  0  0  0  0  0  0
    4.2874    1.3356    4.3604 H   0  0  0  0  0  0  0  0  0  0  0  0
    5.8300    1.5158    3.4661 H   0  0  0  0  0  0  0  0  0  0  0  0
    4.8874    2.9476    3.9216 H   0  0  0  0  0  0  0  0  0  0  0  0
    3.2062   -0.5143    0.0473 H   0  0  0  0  0  0  0  0  0  0  0  0
   -0.6922   -0.1100   -0.4521 H   0  0  0  0  0  0  0  0  0  0  0  0
    1.0725   -2.6296   -2.6019 H   0  0  0  0  0  0  0  0  0  0  0  0
    2.1367   -4.5961   -1.5655 H   0  0  0  0  0  0  0  0  0  0  0  0
    2.3089   -4.8046    0.8989 H   0  0  0  0  0  0  0  0  0  0  0  0
    1.3978   -3.0264    2.3433 H   0  0  0  0  0  0  0  0  0  0  0  0
   -1.8421   -2.3127   -3.4724 H   0  0  0  0  0  0  0  0  0  0  0  0
   -1.5902   -2.7979   -1.8065 H   0  0  0  0  0  0  0  0  0  0  0  0
   -3.4971   -0.6893   -3.0236 H   0  0  0  0  0  0  0  0  0  0  0  0
   -3.9866   -2.2102   -2.2877 H   0  0  0  0  0  0  0  0  0  0  0  0
   -3.1160    1.2756   -1.5214 H   0  0  0  0  0  0  0  0  0  0  0  0
   -3.6609    2.2651    0.7315 H   0  0  0  0  0  0  0  0  0  0  0  0
   -3.9849   -2.6022    0.0491 H   0  0  0  0  0  0  0  0  0  0  0  0
   -4.5017   -1.6523    2.1875 H   0  0  0  0  0  0  0  0  0  0  0  0
   -4.7059    2.5612    4.0103 H   0  0  0  0  0  0  0  0  0  0  0  0
   -3.3027    2.7164    2.8475 H   0  0  0  0  0  0  0  0  0  0  0  0
   -4.9753    2.8289    2.2705 H   0  0  0  0  0  0  0  0  0  0  0  0
  1  2  1  0
  2  3  1  0
  3  4  2  0
  4  5  1  0
  5  6  2  0
  6  7  1  0
  6  8  1  0
  8  9  2  0
  9 10  1  0
  9 11  1  0
 11 12  1  0
 11 13  2  0
  1 14  1  0
 14 15  2  0
  1 16  2  0
 16 17  1  0
 17 18  1  0
 18 19  2  0
 19 20  1  0
 20 21  2  0
 21 22  1  0
 22 23  2  0
 23 24  1  0
 17 25  1  0
 25 26  1  0
 26 27  1  0
 27 28  1  0
 28 29  2  0
 29 30  1  0
 28 31  1  0
 31 32  2  0
 32 33  1  0
 33 34  1  0
 34 35  1  0
 16  4  1  0
 13  5  1  0
 25 14  1  0
 23 18  1  0
 33 30  2  0
  2 36  1  0
  7 37  1  0
  8 38  1  0
 10 39  1  0
 10 40  1  0
 10 41  1  0
 13 42  1  0
 17 43  1  0
 19 44  1  0
 20 45  1  0
 21 46  1  0
 22 47  1  0
 26 48  1  0
 26 49  1  0
 27 50  1  0
 27 51  1  0
 29 52  1  0
 30 53  1  0
 31 54  1  0
 32 55  1  0
 35 56  1  0
 35 57  1  0
 35 58  1  0
M  END
>  <Batch_No>  (369) 
OSSK_587114

>  <EC50_nM>  (369) 
916

>  <Set>  (369) 
Probe-like

>  <Molecular_Weight>  (369) 
491.94122

>  <ALogP>  (369) 
6.294

$$$$
MMV638723
     RDKit          3D

 30 31  0  0  0  0  0  0  0  0999 V2000
    1.1124   -0.5096    0.0939 N   0  0  0  0  0  0  0  0  0  0  0  0
    1.5505    0.5069   -0.6677 C   0  0  0  0  0  0  0  0  0  0  0  0
    2.8907    0.7866   -0.7580 C   0  0  0  0  0  0  0  0  0  0  0  0
    3.7836    0.0043   -0.0515 C   0  0  0  0  0  0  0  0  0  0  0  0
    5.1855    0.2498   -0.1088 N   0  0  0  0  0  0  0  0  0  0  0  0
    3.3267   -0.9966    0.6959 N   0  0  0  0  0  0  0  0  0  0  0  0
    2.0040   -1.2565    0.7722 C   0  0  0  0  0  0  0  0  0  0  0  0
    1.5479   -2.2091    1.4815 O   0  0  0  0  0  0  0  0  0  0  0  0
   -0.2902   -0.7795    0.1703 C   0  0  0  0  0  0  0  0  0  0  0  0
   -0.9228   -0.8538   -1.0452 O   0  0  0  0  0  0  0  0  0  0  0  0
   -2.2593   -0.5815   -0.8652 C   0  0  1  0  0  0  0  0  0  0  0  0
   -2.4544   -0.2328    0.5971 C   0  0  1  0  0  0  0  0  0  0  0  0
   -2.6327   -1.4348    1.2706 O   0  0  0  0  0  0  0  0  0  0  0  0
   -1.0680    0.3236    0.8688 C   0  0  1  0  0  0  0  0  0  0  0  0
   -0.7831    0.4110    2.2126 O   0  0  0  0  0  0  0  0  0  0  0  0
   -2.6701    0.6426   -1.6686 C   0  0  0  0  0  0  0  0  0  0  0  0
   -4.0230    0.9365   -1.5002 O   0  0  0  0  0  0  0  0  0  0  0  0
    0.8719    1.1503   -1.2433 H   0  0  0  0  0  0  0  0  0  0  0  0
    3.2379    1.6059   -1.3725 H   0  0  0  0  0  0  0  0  0  0  0  0
    5.4813    1.2560   -0.0874 H   0  0  0  0  0  0  0  0  0  0  0  0
    5.8865   -0.5252   -0.1689 H   0  0  0  0  0  0  0  0  0  0  0  0
   -0.5041   -1.7206    0.7175 H   0  0  0  0  0  0  0  0  0  0  0  0
   -2.8760   -1.4477   -1.1702 H   0  0  0  0  0  0  0  0  0  0  0  0
   -3.2615    0.4911    0.7877 H   0  0  0  0  0  0  0  0  0  0  0  0
   -2.4842   -2.2350    0.7003 H   0  0  0  0  0  0  0  0  0  0  0  0
   -0.9994    1.2869    0.3323 H   0  0  0  0  0  0  0  0  0  0  0  0
   -0.9672    1.3641    2.4897 H   0  0  0  0  0  0  0  0  0  0  0  0
   -2.0571    1.5071   -1.3991 H   0  0  0  0  0  0  0  0  0  0  0  0
   -2.5201    0.4274   -2.7485 H   0  0  0  0  0  0  0  0  0  0  0  0
   -4.1056    1.8325   -1.0499 H   0  0  0  0  0  0  0  0  0  0  0  0
  1  2  1  0
  2  3  2  0
  3  4  1  0
  4  5  1  0
  4  6  2  0
  6  7  1  0
  7  8  2  0
  1  9  1  0
  9 10  1  0
 10 11  1  0
 11 12  1  0
 12 13  1  0
 12 14  1  0
 14 15  1  0
 11 16  1  0
 16 17  1  0
  7  1  1  0
 14  9  1  0
  2 18  1  0
  3 19  1  0
  5 20  1  0
  5 21  1  0
  9 22  1  0
 11 23  1  6
 12 24  1  6
 13 25  1  0
 14 26  1  6
 15 27  1  0
 16 28  1  0
 16 29  1  0
 17 30  1  0
M  END
>  <Batch_No>  (370) 
OSSL_144797

>  <EC50_nM>  (370) 
385

>  <Set>  (370) 
Probe-like

>  <Molecular_Weight>  (370) 
243.21662

>  <ALogP>  (370) 
-2.396

$$$$
MMV396594
     RDKit          3D

 69 74  0  0  0  0  0  0  0  0999 V2000
   -2.2966    2.3894   -0.1122 C   0  0  0  0  0  0  0  0  0  0  0  0
   -3.6615    2.1359   -0.0440 C   0  0  0  0  0  0  0  0  0  0  0  0
   -4.1956    0.9569    0.3185 N   0  0  0  0  0  0  0  0  0  0  0  0
   -3.4187   -0.1051    0.6552 C   0  0  0  0  0  0  0  0  0  0  0  0
   -4.0278   -1.3686    1.0395 C   0  0  0  0  0  0  0  0  0  0  0  0
   -5.4053   -1.4635    1.0425 C   0  0  0  0  0  0  0  0  0  0  0  0
   -6.0503   -2.6299    1.3916 C   0  0  0  0  0  0  0  0  0  0  0  0
   -5.2756   -3.7337    1.7486 C   0  0  0  0  0  0  0  0  0  0  0  0
   -5.9883   -4.8790    2.0892 O   0  0  0  0  0  0  0  0  0  0  0  0
   -5.3071   -6.0597    2.4671 C   0  0  0  0  0  0  0  0  0  0  0  0
   -3.8951   -3.6847    1.7602 C   0  0  0  0  0  0  0  0  0  0  0  0
   -3.2998   -2.4824    1.3989 C   0  0  0  0  0  0  0  0  0  0  0  0
   -2.1015    0.1030    0.5998 N   0  0  0  0  0  0  0  0  0  0  0  0
   -1.5145    1.2752    0.2383 C   0  0  0  0  0  0  0  0  0  0  0  0
   -0.1034    1.2398    0.1742 N   0  0  0  0  0  0  0  0  0  0  0  0
    0.6240    0.9857   -1.0832 C   0  0  0  0  0  0  0  0  0  0  0  0
    1.4717   -0.2716   -0.9420 C   0  0  0  0  0  0  0  0  0  0  0  0
    2.2782   -0.1121    0.2564 N   0  0  0  0  0  0  0  0  0  0  0  0
    3.6888   -0.3581    0.2693 C   0  0  0  0  0  0  0  0  0  0  0  0
    4.3856   -0.1732    1.3253 O   0  0  0  0  0  0  0  0  0  0  0  0
    4.4413   -0.8365   -0.9152 C   0  0  0  0  0  0  0  0  0  0  0  0
    5.9279   -0.8154   -0.6273 C   0  0  0  0  0  0  0  0  0  0  0  0
    6.3929   -1.8095    0.3743 C   0  0  0  0  0  0  0  0  0  0  0  0
    5.8681   -3.1943    0.1907 C   0  0  0  0  0  0  0  0  0  0  0  0
    4.3641   -3.0974    0.0332 C   0  0  0  0  0  0  0  0  0  0  0  0
    4.1113   -2.2975   -1.2174 C   0  0  0  0  0  0  0  0  0  0  0  0
    1.7004    0.2973    1.5368 C   0  0  0  0  0  0  0  0  0  0  0  0
    0.7604    1.4384    1.3354 C   0  0  0  0  0  0  0  0  0  0  0  0
   -4.4889    3.6264   -0.5058 S   0  0  0  0  0  0  0  0  0  0  0  0
   -2.9516    4.5382   -0.7711 C   0  0  0  0  0  0  0  0  0  0  0  0
   -2.6246    5.8841   -1.1944 C   0  0  0  0  0  0  0  0  0  0  0  0
   -1.5326    5.9244   -2.2495 C   0  0  0  0  0  0  0  0  0  0  0  0
   -0.5166    4.8207   -2.0457 C   0  0  0  0  0  0  0  0  0  0  0  0
   -0.5660    4.3096   -0.6272 C   0  0  0  0  0  0  0  0  0  0  0  0
   -1.9120    3.6053   -0.4771 C   0  0  0  0  0  0  0  0  0  0  0  0
   -5.9881   -0.5783    0.7553 H   0  0  0  0  0  0  0  0  0  0  0  0
   -7.1296   -2.6694    1.3824 H   0  0  0  0  0  0  0  0  0  0  0  0
   -6.0710   -6.8485    2.6718 H   0  0  0  0  0  0  0  0  0  0  0  0
   -4.6840   -6.4253    1.6067 H   0  0  0  0  0  0  0  0  0  0  0  0
   -4.7025   -5.8995    3.3748 H   0  0  0  0  0  0  0  0  0  0  0  0
   -3.3190   -4.5603    2.0436 H   0  0  0  0  0  0  0  0  0  0  0  0
   -2.2241   -2.4435    1.4073 H   0  0  0  0  0  0  0  0  0  0  0  0
    1.3583    1.8044   -1.1921 H   0  0  0  0  0  0  0  0  0  0  0  0
   -0.0200    0.9750   -1.9568 H   0  0  0  0  0  0  0  0  0  0  0  0
    0.8834   -1.1964   -0.9197 H   0  0  0  0  0  0  0  0  0  0  0  0
    2.1921   -0.2092   -1.8002 H   0  0  0  0  0  0  0  0  0  0  0  0
    4.2687   -0.2373   -1.8194 H   0  0  0  0  0  0  0  0  0  0  0  0
    6.4584   -1.0110   -1.5829 H   0  0  0  0  0  0  0  0  0  0  0  0
    6.2628    0.1915   -0.2956 H   0  0  0  0  0  0  0  0  0  0  0  0
    7.5160   -1.8844    0.2390 H   0  0  0  0  0  0  0  0  0  0  0  0
    6.2758   -1.5087    1.4403 H   0  0  0  0  0  0  0  0  0  0  0  0
    6.3586   -3.7085   -0.6689 H   0  0  0  0  0  0  0  0  0  0  0  0
    6.1344   -3.7909    1.0843 H   0  0  0  0  0  0  0  0  0  0  0  0
    3.9183   -4.1183   -0.0306 H   0  0  0  0  0  0  0  0  0  0  0  0
    3.9795   -2.5371    0.8962 H   0  0  0  0  0  0  0  0  0  0  0  0
    3.0945   -2.3540   -1.5830 H   0  0  0  0  0  0  0  0  0  0  0  0
    4.8775   -2.6357   -1.9548 H   0  0  0  0  0  0  0  0  0  0  0  0
    2.4622    0.6019    2.2515 H   0  0  0  0  0  0  0  0  0  0  0  0
    1.1847   -0.6304    1.9057 H   0  0  0  0  0  0  0  0  0  0  0  0
    0.1747    1.5456    2.2755 H   0  0  0  0  0  0  0  0  0  0  0  0
    1.3677    2.3539    1.2290 H   0  0  0  0  0  0  0  0  0  0  0  0
   -2.3551    6.4955   -0.3106 H   0  0  0  0  0  0  0  0  0  0  0  0
   -3.5220    6.3495   -1.6501 H   0  0  0  0  0  0  0  0  0  0  0  0
   -1.0316    6.8977   -2.1797 H   0  0  0  0  0  0  0  0  0  0  0  0
   -1.9539    5.8199   -3.2637 H   0  0  0  0  0  0  0  0  0  0  0  0
    0.4900    5.1720   -2.3364 H   0  0  0  0  0  0  0  0  0  0  0  0
   -0.7696    3.9799   -2.7149 H   0  0  0  0  0  0  0  0  0  0  0  0
   -0.6436    5.2099    0.0418 H   0  0  0  0  0  0  0  0  0  0  0  0
    0.2755    3.6919   -0.4225 H   0  0  0  0  0  0  0  0  0  0  0  0
  1  2  1  0
  2  3  2  0
  3  4  1  0
  4  5  1  0
  5  6  2  0
  6  7  1  0
  7  8  2  0
  8  9  1  0
  9 10  1  0
  8 11  1  0
 11 12  2  0
  4 13  2  0
 13 14  1  0
 14 15  1  0
 15 16  1  0
 16 17  1  0
 17 18  1  0
 18 19  1  0
 19 20  2  0
 19 21  1  0
 21 22  1  0
 22 23  1  0
 23 24  1  0
 24 25  1  0
 25 26  1  0
 18 27  1  0
 27 28  1  0
  2 29  1  0
 29 30  1  0
 30 31  1  0
 31 32  1  0
 32 33  1  0
 33 34  1  0
 30 35  2  0
 14  1  2  0
 35  1  1  0
 12  5  1  0
 28 15  1  0
 26 21  1  0
 35 34  1  0
  6 36  1  0
  7 37  1  0
 10 38  1  0
 10 39  1  0
 10 40  1  0
 11 41  1  0
 12 42  1  0
 16 43  1  0
 16 44  1  0
 17 45  1  0
 17 46  1  0
 21 47  1  0
 22 48  1  0
 22 49  1  0
 23 50  1  0
 23 51  1  0
 24 52  1  0
 24 53  1  0
 25 54  1  0
 25 55  1  0
 26 56  1  0
 26 57  1  0
 27 58  1  0
 27 59  1  0
 28 60  1  0
 28 61  1  0
 31 62  1  0
 31 63  1  0
 32 64  1  0
 32 65  1  0
 33 66  1  0
 33 67  1  0
 34 68  1  0
 34 69  1  0
M  END
>  <Batch_No>  (371) 
ASN 4888204

>  <EC50_nM>  (371) 
1060

>  <Set>  (371) 
Probe-like

>  <Molecular_Weight>  (371) 
490.66015

>  <ALogP>  (371) 
5.523

$$$$
MMV396665
     RDKit          3D

 50 54  0  0  0  0  0  0  0  0999 V2000
    0.9892   -0.1057    0.5104 C   0  0  0  0  0  0  0  0  0  0  0  0
    2.1928   -1.4339   -0.1945 S   0  0  0  0  0  0  0  0  0  0  0  0
    3.5876   -0.3304   -0.0631 C   0  0  0  0  0  0  0  0  0  0  0  0
    4.9082   -0.4909   -0.3701 C   0  0  0  0  0  0  0  0  0  0  0  0
    5.8182    0.5598   -0.1607 C   0  0  0  0  0  0  0  0  0  0  0  0
    5.2528    1.7093    0.3627 C   0  0  0  0  0  0  0  0  0  0  0  0
    6.2432    2.6576    0.5389 C   0  0  0  0  0  0  0  0  0  0  0  0
    7.5554    2.1096    0.0917 C   0  0  0  0  0  0  0  0  0  0  0  0
    7.2584    0.7291   -0.3917 C   0  0  0  0  0  0  0  0  0  0  0  0
    3.9464    1.8812    0.6698 C   0  0  0  0  0  0  0  0  0  0  0  0
    3.5428    3.1030    1.2068 C   0  0  0  0  0  0  0  0  0  0  0  0
    4.5046    4.0877    1.4018 C   0  0  0  0  0  0  0  0  0  0  0  0
    5.8338    3.8681    1.0739 C   0  0  0  0  0  0  0  0  0  0  0  0
    3.0401    0.8384    0.4618 C   0  0  0  0  0  0  0  0  0  0  0  0
    1.7607    0.7731    0.6796 N   0  0  0  0  0  0  0  0  0  0  0  0
   -0.3581   -0.5603    0.6212 N   0  0  0  0  0  0  0  0  0  0  0  0
   -1.2405   -0.6441   -0.4940 C   0  0  0  0  0  0  0  0  0  0  0  0
   -0.7425   -0.3033   -1.6010 O   0  0  0  0  0  0  0  0  0  0  0  0
   -2.6122   -1.0970   -0.3240 C   0  0  0  0  0  0  0  0  0  0  0  0
   -3.3607   -1.5836   -1.3768 C   0  0  0  0  0  0  0  0  0  0  0  0
   -4.6685   -1.9619   -1.1590 C   0  0  0  0  0  0  0  0  0  0  0  0
   -5.4983   -2.4639   -2.1520 O   0  0  0  0  0  0  0  0  0  0  0  0
   -4.9694   -2.5892   -3.4573 C   0  0  0  0  0  0  0  0  0  0  0  0
   -3.1747   -0.9873    0.9584 C   0  0  0  0  0  0  0  0  0  0  0  0
   -4.4779   -1.3597    1.1903 C   0  0  0  0  0  0  0  0  0  0  0  0
   -5.1258   -1.2931    2.4016 O   0  0  0  0  0  0  0  0  0  0  0  0
   -4.4294   -0.8183    3.5298 C   0  0  0  0  0  0  0  0  0  0  0  0
   -5.1921   -1.8410    0.1161 C   0  0  0  0  0  0  0  0  0  0  0  0
   -6.5263   -2.2325    0.3143 O   0  0  0  0  0  0  0  0  0  0  0  0
   -7.4980   -1.2008    0.0872 C   0  0  0  0  0  0  0  0  0  0  0  0
    5.2815   -1.4144   -0.7764 H   0  0  0  0  0  0  0  0  0  0  0  0
    8.2799    2.0233    0.9280 H   0  0  0  0  0  0  0  0  0  0  0  0
    7.9564    2.7760   -0.6968 H   0  0  0  0  0  0  0  0  0  0  0  0
    7.5171    0.6673   -1.4870 H   0  0  0  0  0  0  0  0  0  0  0  0
    7.8334   -0.0803    0.1020 H   0  0  0  0  0  0  0  0  0  0  0  0
    2.5086    3.2726    1.4597 H   0  0  0  0  0  0  0  0  0  0  0  0
    4.2516    5.0628    1.8248 H   0  0  0  0  0  0  0  0  0  0  0  0
    6.5754    4.6622    1.2357 H   0  0  0  0  0  0  0  0  0  0  0  0
   -0.6501   -0.8322    1.5897 H   0  0  0  0  0  0  0  0  0  0  0  0
   -2.9286   -1.6712   -2.3786 H   0  0  0  0  0  0  0  0  0  0  0  0
   -4.0005   -3.1582   -3.3707 H   0  0  0  0  0  0  0  0  0  0  0  0
   -5.7036   -3.2173   -4.0491 H   0  0  0  0  0  0  0  0  0  0  0  0
   -4.8217   -1.6368   -3.9803 H   0  0  0  0  0  0  0  0  0  0  0  0
   -2.6179   -0.6097    1.7988 H   0  0  0  0  0  0  0  0  0  0  0  0
   -3.7226   -0.0037    3.3403 H   0  0  0  0  0  0  0  0  0  0  0  0
   -3.8674   -1.6589    3.9888 H   0  0  0  0  0  0  0  0  0  0  0  0
   -5.1442   -0.4007    4.2936 H   0  0  0  0  0  0  0  0  0  0  0  0
   -7.2907   -0.2769    0.6260 H   0  0  0  0  0  0  0  0  0  0  0  0
   -8.4936   -1.5907    0.3983 H   0  0  0  0  0  0  0  0  0  0  0  0
   -7.5227   -0.9333   -0.9943 H   0  0  0  0  0  0  0  0  0  0  0  0
  1  2  1  0
  2  3  1  0
  3  4  2  0
  4  5  1  0
  5  6  2  0
  6  7  1  0
  7  8  1  0
  8  9  1  0
  6 10  1  0
 10 11  1  0
 11 12  2  0
 12 13  1  0
  3 14  1  0
 14 15  1  0
  1 16  1  0
 16 17  1  0
 17 18  2  0
 17 19  1  0
 19 20  2  0
 20 21  1  0
 21 22  1  0
 22 23  1  0
 19 24  1  0
 24 25  2  0
 25 26  1  0
 26 27  1  0
 25 28  1  0
 28 29  1  0
 29 30  1  0
 15  1  2  0
  9  5  1  0
 13  7  2  0
 14 10  2  0
 28 21  2  0
  4 31  1  0
  8 32  1  0
  8 33  1  0
  9 34  1  0
  9 35  1  0
 11 36  1  0
 12 37  1  0
 13 38  1  0
 16 39  1  0
 20 40  1  0
 23 41  1  0
 23 42  1  0
 23 43  1  0
 24 44  1  0
 27 45  1  0
 27 46  1  0
 27 47  1  0
 30 48  1  0
 30 49  1  0
 30 50  1  0
M  END
>  <Batch_No>  (372) 
F0779-0435

>  <EC50_nM>  (372) 
898

>  <Set>  (372) 
Probe-like

>  <Molecular_Weight>  (372) 
420.48089

>  <ALogP>  (372) 
4.7

$$$$
MMV396723
     RDKit          3D

 53 56  0  0  0  0  0  0  0  0999 V2000
   -1.7651   -0.7090   -0.9955 N   0  0  0  0  0  0  0  0  0  0  0  0
   -3.1266   -0.3132   -1.3883 C   0  0  0  0  0  0  0  0  0  0  0  0
   -4.1116   -0.7804   -0.3783 C   0  0  0  0  0  0  0  0  0  0  0  0
   -4.0777   -2.0264   -0.1170 O   0  0  0  0  0  0  0  0  0  0  0  0
   -5.0629    0.1073    0.2835 C   0  0  0  0  0  0  0  0  0  0  0  0
   -5.1540    1.4568    0.0285 C   0  0  0  0  0  0  0  0  0  0  0  0
   -6.0627    2.2685    0.6746 C   0  0  0  0  0  0  0  0  0  0  0  0
   -6.9002    1.7235    1.5972 C   0  0  0  0  0  0  0  0  0  0  0  0
   -8.0640    2.7347    2.4318 Cl  0  0  0  0  0  0  0  0  0  0  0  0
   -6.8446    0.3744    1.8859 C   0  0  0  0  0  0  0  0  0  0  0  0
   -7.9043   -0.3502    3.0622 Cl  0  0  0  0  0  0  0  0  0  0  0  0
   -5.9132   -0.4305    1.2160 C   0  0  0  0  0  0  0  0  0  0  0  0
   -1.0877   -1.8123   -1.3279 C   0  0  0  0  0  0  0  0  0  0  0  0
    0.1403   -1.7128   -0.6804 C   0  0  0  0  0  0  0  0  0  0  0  0
    1.0679   -2.7312   -0.8434 C   0  0  0  0  0  0  0  0  0  0  0  0
    0.7429   -3.8139   -1.6436 C   0  0  0  0  0  0  0  0  0  0  0  0
   -0.4918   -3.9006   -2.2861 C   0  0  0  0  0  0  0  0  0  0  0  0
   -1.3981   -2.8958   -2.1220 C   0  0  0  0  0  0  0  0  0  0  0  0
    0.1469   -0.5491    0.0170 N   0  0  0  0  0  0  0  0  0  0  0  0
    1.2848   -0.1038    0.8328 C   0  0  0  0  0  0  0  0  0  0  0  0
    2.2353    0.7298    0.0535 C   0  0  0  0  0  0  0  0  0  0  0  0
    3.3914    1.2024    0.7936 N   0  0  0  0  0  0  0  0  0  0  0  0
    4.1382    2.0339   -0.0891 C   0  0  0  0  0  0  0  0  0  0  0  0
    5.5245    2.3594    0.2880 C   0  0  0  0  0  0  0  0  0  0  0  0
    6.1436    1.4814    1.3404 C   0  0  0  0  0  0  0  0  0  0  0  0
    5.5741    0.1028    1.0865 C   0  0  0  0  0  0  0  0  0  0  0  0
    4.1107    0.1473    1.4250 C   0  0  0  0  0  0  0  0  0  0  0  0
   -1.0165    0.0781   -0.1675 C   0  0  0  0  0  0  0  0  0  0  0  0
   -1.3655    1.2041    0.3371 N   0  0  0  0  0  0  0  0  0  0  0  0
   -3.0923    0.7750   -1.5365 H   0  0  0  0  0  0  0  0  0  0  0  0
   -3.3688   -0.7467   -2.3972 H   0  0  0  0  0  0  0  0  0  0  0  0
   -4.5041    1.9177   -0.6996 H   0  0  0  0  0  0  0  0  0  0  0  0
   -6.0817    3.3317    0.4262 H   0  0  0  0  0  0  0  0  0  0  0  0
   -5.8799   -1.4839    1.4484 H   0  0  0  0  0  0  0  0  0  0  0  0
    2.0423   -2.6659   -0.3384 H   0  0  0  0  0  0  0  0  0  0  0  0
    1.4995   -4.5964   -1.7444 H   0  0  0  0  0  0  0  0  0  0  0  0
   -0.6781   -4.7779   -2.8949 H   0  0  0  0  0  0  0  0  0  0  0  0
   -2.3783   -2.9386   -2.6172 H   0  0  0  0  0  0  0  0  0  0  0  0
    1.6892   -0.9866    1.3129 H   0  0  0  0  0  0  0  0  0  0  0  0
    0.8431    0.5251    1.6456 H   0  0  0  0  0  0  0  0  0  0  0  0
    2.6159    0.1802   -0.8335 H   0  0  0  0  0  0  0  0  0  0  0  0
    1.7565    1.6462   -0.3518 H   0  0  0  0  0  0  0  0  0  0  0  0
    4.1287    1.5724   -1.0965 H   0  0  0  0  0  0  0  0  0  0  0  0
    3.5740    2.9987   -0.2194 H   0  0  0  0  0  0  0  0  0  0  0  0
    6.2078    2.3328   -0.6050 H   0  0  0  0  0  0  0  0  0  0  0  0
    5.6252    3.4131    0.6810 H   0  0  0  0  0  0  0  0  0  0  0  0
    5.8940    1.8149    2.3730 H   0  0  0  0  0  0  0  0  0  0  0  0
    7.2430    1.4784    1.1952 H   0  0  0  0  0  0  0  0  0  0  0  0
    6.0294   -0.6844    1.6938 H   0  0  0  0  0  0  0  0  0  0  0  0
    5.6826   -0.1022   -0.0070 H   0  0  0  0  0  0  0  0  0  0  0  0
    4.0079    0.2232    2.5254 H   0  0  0  0  0  0  0  0  0  0  0  0
    3.6919   -0.8215    1.0886 H   0  0  0  0  0  0  0  0  0  0  0  0
   -0.7022    1.7195    0.9618 H   0  0  0  0  0  0  0  0  0  0  0  0
  1  2  1  0
  2  3  1  0
  3  4  2  0
  3  5  1  0
  5  6  2  0
  6  7  1  0
  7  8  2  0
  8  9  1  0
  8 10  1  0
 10 11  1  0
  5 12  1  0
  1 13  1  0
 13 14  1  0
 14 15  2  0
 15 16  1  0
 16 17  2  0
 17 18  1  0
 14 19  1  0
 19 20  1  0
 20 21  1  0
 21 22  1  0
 22 23  1  0
 23 24  1  0
 24 25  1  0
 25 26  1  0
 26 27  1  0
 19 28  1  0
 28 29  2  3
 28  1  1  0
 12 10  2  0
 18 13  2  0
 27 22  1  0
  2 30  1  0
  2 31  1  0
  6 32  1  0
  7 33  1  0
 12 34  1  0
 15 35  1  0
 16 36  1  0
 17 37  1  0
 18 38  1  0
 20 39  1  0
 20 40  1  0
 21 41  1  0
 21 42  1  0
 23 43  1  0
 23 44  1  0
 24 45  1  0
 24 46  1  0
 25 47  1  0
 25 48  1  0
 26 49  1  0
 26 50  1  0
 27 51  1  0
 27 52  1  0
 29 53  1  0
M  END
>  <Batch_No>  (373) 
STK530593

>  <EC50_nM>  (373) 
1240

>  <Set>  (373) 
Probe-like

>  <Molecular_Weight>  (373) 
431.35815

>  <ALogP>  (373) 
4.799

$$$$
MMV007654
     RDKit          3D

 42 44  0  0  0  0  0  0  0  0999 V2000
    5.0717   -1.2021   -2.6500 C   0  0  0  0  0  0  0  0  0  0  0  0
    4.7207   -0.7447   -1.2806 C   0  0  0  0  0  0  0  0  0  0  0  0
    5.5761   -0.9602   -0.2272 C   0  0  0  0  0  0  0  0  0  0  0  0
    5.1941   -0.5090    1.0066 C   0  0  0  0  0  0  0  0  0  0  0  0
    3.9939    0.1529    1.2551 C   0  0  0  0  0  0  0  0  0  0  0  0
    3.7301    0.5267    2.6517 C   0  0  0  0  0  0  0  0  0  0  0  0
    3.1414    0.3694    0.2064 C   0  0  0  0  0  0  0  0  0  0  0  0
    3.5480   -0.0962   -1.0340 C   0  0  0  0  0  0  0  0  0  0  0  0
    1.8235    1.0296    0.3697 C   0  0  0  0  0  0  0  0  0  0  0  0
    1.4724    1.9090    1.3687 C   0  0  0  0  0  0  0  0  0  0  0  0
   -0.2616    2.4104    0.9404 S   0  0  0  0  0  0  0  0  0  0  0  0
   -0.1949    1.2747   -0.6036 C   0  0  0  0  0  0  0  0  0  0  0  0
   -1.4833    1.4076   -1.2530 N   0  0  0  0  0  0  0  0  0  0  0  0
   -2.5369    0.6237   -0.6769 C   0  0  0  0  0  0  0  0  0  0  0  0
   -2.2547   -0.3808    0.2220 C   0  0  0  0  0  0  0  0  0  0  0  0
   -3.2684   -1.1141    0.8013 C   0  0  0  0  0  0  0  0  0  0  0  0
   -4.6015   -0.8608    0.4957 C   0  0  0  0  0  0  0  0  0  0  0  0
   -5.6771   -1.6422    1.1201 C   0  0  0  0  0  0  0  0  0  0  0  0
   -4.8927    0.1442   -0.4049 C   0  0  0  0  0  0  0  0  0  0  0  0
   -6.2800    0.4895   -0.7840 C   0  0  0  0  0  0  0  0  0  0  0  0
   -3.8708    0.8637   -0.9724 C   0  0  0  0  0  0  0  0  0  0  0  0
    0.8518    0.8518   -0.5127 N   0  0  0  0  0  0  0  0  0  0  0  0
    4.4158   -2.0366   -2.9302 H   0  0  0  0  0  0  0  0  0  0  0  0
    6.1313   -1.5483   -2.6717 H   0  0  0  0  0  0  0  0  0  0  0  0
    4.9887   -0.3941   -3.4105 H   0  0  0  0  0  0  0  0  0  0  0  0
    6.4945   -1.4630   -0.3986 H   0  0  0  0  0  0  0  0  0  0  0  0
    5.9043   -0.7010    1.8246 H   0  0  0  0  0  0  0  0  0  0  0  0
    4.0032    1.5696    2.8787 H   0  0  0  0  0  0  0  0  0  0  0  0
    4.4282   -0.0765    3.3244 H   0  0  0  0  0  0  0  0  0  0  0  0
    2.7005    0.2953    2.9185 H   0  0  0  0  0  0  0  0  0  0  0  0
    2.8829    0.0639   -1.8935 H   0  0  0  0  0  0  0  0  0  0  0  0
    1.9752    2.3174    2.2302 H   0  0  0  0  0  0  0  0  0  0  0  0
   -1.6286    2.0228   -2.0736 H   0  0  0  0  0  0  0  0  0  0  0  0
   -1.2257   -0.5955    0.4728 H   0  0  0  0  0  0  0  0  0  0  0  0
   -3.0007   -1.9062    1.5129 H   0  0  0  0  0  0  0  0  0  0  0  0
   -6.0818   -1.0919    2.0099 H   0  0  0  0  0  0  0  0  0  0  0  0
   -6.5109   -1.9172    0.4767 H   0  0  0  0  0  0  0  0  0  0  0  0
   -5.2320   -2.6008    1.5056 H   0  0  0  0  0  0  0  0  0  0  0  0
   -6.4466    0.4107   -1.8681 H   0  0  0  0  0  0  0  0  0  0  0  0
   -7.0404   -0.1017   -0.2639 H   0  0  0  0  0  0  0  0  0  0  0  0
   -6.4757    1.5536   -0.4511 H   0  0  0  0  0  0  0  0  0  0  0  0
   -4.0841    1.6564   -1.6832 H   0  0  0  0  0  0  0  0  0  0  0  0
  1  2  1  0
  2  3  2  0
  3  4  1  0
  4  5  2  0
  5  6  1  0
  5  7  1  0
  7  8  2  0
  7  9  1  0
  9 10  2  0
 10 11  1  0
 11 12  1  0
 12 13  1  0
 13 14  1  0
 14 15  2  0
 15 16  1  0
 16 17  2  0
 17 18  1  0
 17 19  1  0
 19 20  1  0
 19 21  2  0
 12 22  2  0
  8  2  1  0
 22  9  1  0
 21 14  1  0
  1 23  1  0
  1 24  1  0
  1 25  1  0
  3 26  1  0
  4 27  1  0
  6 28  1  0
  6 29  1  0
  6 30  1  0
  8 31  1  0
 10 32  1  0
 13 33  1  0
 15 34  1  0
 16 35  1  0
 18 36  1  0
 18 37  1  0
 18 38  1  0
 20 39  1  0
 20 40  1  0
 20 41  1  0
 21 42  1  0
M  END
>  <Batch_No>  (374) 
STK662230

>  <EC50_nM>  (374) 
ND

>  <Set>  (374) 
Probe-like

>  <Molecular_Weight>  (374) 
308.44049

>  <ALogP>  (374) 
5.631

$$$$
MMV011832
     RDKit          3D

 37 40  0  0  0  0  0  0  0  0999 V2000
   -0.8726    2.8668   -1.0643 O   0  0  0  0  0  0  0  0  0  0  0  0
   -1.9369    2.0449   -0.7202 C   0  0  0  0  0  0  0  0  0  0  0  0
   -3.1402    2.6599   -0.4576 C   0  0  0  0  0  0  0  0  0  0  0  0
   -4.2520    1.9272   -0.1085 C   0  0  0  0  0  0  0  0  0  0  0  0
   -4.0913    0.5543   -0.0376 C   0  0  0  0  0  0  0  0  0  0  0  0
   -5.2192   -0.1914    0.3246 C   0  0  0  0  0  0  0  0  0  0  0  0
   -5.0906   -1.5610    0.4108 C   0  0  0  0  0  0  0  0  0  0  0  0
   -3.8712   -2.1960    0.1453 C   0  0  0  0  0  0  0  0  0  0  0  0
   -2.7715   -1.4349   -0.2108 C   0  0  0  0  0  0  0  0  0  0  0  0
   -2.8899   -0.0657   -0.2993 C   0  0  0  0  0  0  0  0  0  0  0  0
   -1.7809    0.6543   -0.6469 C   0  0  0  0  0  0  0  0  0  0  0  0
   -0.4543    0.1185   -0.9445 C   0  0  0  0  0  0  0  0  0  0  0  0
    0.3884    0.3300    0.2371 N   0  0  0  0  0  0  0  0  0  0  0  0
    1.7635   -0.0002    0.2686 C   0  0  0  0  0  0  0  0  0  0  0  0
    2.7209    0.9707    0.3712 N   0  0  0  0  0  0  0  0  0  0  0  0
    3.9106    0.3487    0.3657 C   0  0  0  0  0  0  0  0  0  0  0  0
    5.1974    0.8194    0.4450 C   0  0  0  0  0  0  0  0  0  0  0  0
    6.3091   -0.0004    0.4248 C   0  0  0  0  0  0  0  0  0  0  0  0
    6.0991   -1.3799    0.3178 C   0  0  0  0  0  0  0  0  0  0  0  0
    4.8177   -1.8637    0.2379 C   0  0  0  0  0  0  0  0  0  0  0  0
    3.7110   -1.0138    0.2603 C   0  0  0  0  0  0  0  0  0  0  0  0
    2.3772   -1.1979    0.2026 N   0  0  0  0  0  0  0  0  0  0  0  0
   -0.4727    2.7505   -1.9900 H   0  0  0  0  0  0  0  0  0  0  0  0
   -3.2732    3.7359   -0.5127 H   0  0  0  0  0  0  0  0  0  0  0  0
   -5.1907    2.4270    0.0953 H   0  0  0  0  0  0  0  0  0  0  0  0
   -6.1579    0.3335    0.5252 H   0  0  0  0  0  0  0  0  0  0  0  0
   -5.9602   -2.1612    0.6935 H   0  0  0  0  0  0  0  0  0  0  0  0
   -3.8331   -3.2740    0.2294 H   0  0  0  0  0  0  0  0  0  0  0  0
   -1.8566   -1.9752   -0.4022 H   0  0  0  0  0  0  0  0  0  0  0  0
   -0.3812   -0.9391   -1.1841 H   0  0  0  0  0  0  0  0  0  0  0  0
    0.0046    0.7717   -1.7280 H   0  0  0  0  0  0  0  0  0  0  0  0
   -0.0073    0.7460    1.1194 H   0  0  0  0  0  0  0  0  0  0  0  0
    5.4142    1.8919    0.5312 H   0  0  0  0  0  0  0  0  0  0  0  0
    7.3045    0.4112    0.4904 H   0  0  0  0  0  0  0  0  0  0  0  0
    6.9732   -2.0467    0.2992 H   0  0  0  0  0  0  0  0  0  0  0  0
    4.6325   -2.9369    0.1521 H   0  0  0  0  0  0  0  0  0  0  0  0
    1.8798   -2.1241    0.1188 H   0  0  0  0  0  0  0  0  0  0  0  0
  1  2  1  0
  2  3  2  0
  3  4  1  0
  4  5  2  0
  5  6  1  0
  6  7  2  0
  7  8  1  0
  8  9  2  0
  9 10  1  0
 10 11  2  0
 11 12  1  0
 12 13  1  0
 13 14  1  0
 14 15  2  0
 15 16  1  0
 16 17  2  0
 17 18  1  0
 18 19  2  0
 19 20  1  0
 20 21  2  0
 21 22  1  0
 11  2  1  0
 10  5  1  0
 22 14  1  0
 21 16  1  0
  1 23  1  0
  3 24  1  0
  4 25  1  0
  6 26  1  0
  7 27  1  0
  8 28  1  0
  9 29  1  0
 12 30  1  0
 12 31  1  0
 13 32  1  0
 17 33  1  0
 18 34  1  0
 19 35  1  0
 20 36  1  0
 22 37  1  0
M  END
>  <Batch_No>  (375) 
STK001666

>  <EC50_nM>  (375) 
646

>  <Set>  (375) 
Probe-like

>  <Molecular_Weight>  (375) 
289.3312

>  <ALogP>  (375) 
3.473

$$$$
MMV020750
     RDKit          3D

 48 51  0  0  0  0  0  0  0  0999 V2000
    4.6637   -1.2852   -3.1913 C   0  0  0  0  0  0  0  0  0  0  0  0
    5.1526   -0.6888   -2.0265 O   0  0  0  0  0  0  0  0  0  0  0  0
    4.3962   -0.2241   -0.9824 C   0  0  0  0  0  0  0  0  0  0  0  0
    3.0267   -0.3095   -0.9932 C   0  0  0  0  0  0  0  0  0  0  0  0
    2.2712    0.1539    0.0482 C   0  0  0  0  0  0  0  0  0  0  0  0
    2.9291    0.7163    1.1229 C   0  0  0  0  0  0  0  0  0  0  0  0
    4.3153    0.8182    1.1656 C   0  0  0  0  0  0  0  0  0  0  0  0
    4.9728    1.3780    2.2350 O   0  0  0  0  0  0  0  0  0  0  0  0
    4.2330    1.8763    3.3461 C   0  0  0  0  0  0  0  0  0  0  0  0
    5.0521    0.3396    0.0953 C   0  0  0  0  0  0  0  0  0  0  0  0
    6.4300    0.4309    0.1171 O   0  0  0  0  0  0  0  0  0  0  0  0
    0.8028    0.0659    0.0440 C   0  0  0  0  0  0  0  0  0  0  0  0
    0.0911   -0.4690   -0.9676 N   0  0  0  0  0  0  0  0  0  0  0  0
   -1.2227   -0.4053   -0.6792 C   0  0  0  0  0  0  0  0  0  0  0  0
   -2.3690   -0.8485   -1.4505 C   0  0  0  0  0  0  0  0  0  0  0  0
   -2.5278   -2.1802   -1.7872 C   0  0  0  0  0  0  0  0  0  0  0  0
   -3.6341   -2.5980   -2.5298 C   0  0  0  0  0  0  0  0  0  0  0  0
   -4.5649   -1.6416   -2.9179 C   0  0  0  0  0  0  0  0  0  0  0  0
   -4.4093   -0.3137   -2.5837 C   0  0  0  0  0  0  0  0  0  0  0  0
   -3.3008    0.0954   -1.8414 C   0  0  0  0  0  0  0  0  0  0  0  0
   -1.3066    0.1974    0.5673 C   0  0  0  0  0  0  0  0  0  0  0  0
   -0.0560    0.4793    0.9953 N   0  0  0  0  0  0  0  0  0  0  0  0
   -2.5583    0.4757    1.2885 C   0  0  0  0  0  0  0  0  0  0  0  0
   -2.9460    1.7559    1.6253 C   0  0  0  0  0  0  0  0  0  0  0  0
   -4.1493    1.9368    2.3104 C   0  0  0  0  0  0  0  0  0  0  0  0
   -4.9436    0.8574    2.6487 C   0  0  0  0  0  0  0  0  0  0  0  0
   -4.5384   -0.4178    2.3026 C   0  0  0  0  0  0  0  0  0  0  0  0
   -3.3481   -0.6266    1.6221 C   0  0  0  0  0  0  0  0  0  0  0  0
    3.6703   -0.9219   -3.5144 H   0  0  0  0  0  0  0  0  0  0  0  0
    5.3390   -1.1175   -4.0539 H   0  0  0  0  0  0  0  0  0  0  0  0
    4.5589   -2.3822   -2.9879 H   0  0  0  0  0  0  0  0  0  0  0  0
    2.5285   -0.7479   -1.8327 H   0  0  0  0  0  0  0  0  0  0  0  0
    2.3799    1.1059    1.9882 H   0  0  0  0  0  0  0  0  0  0  0  0
    3.6721    1.0955    3.8675 H   0  0  0  0  0  0  0  0  0  0  0  0
    3.4936    2.6077    2.9449 H   0  0  0  0  0  0  0  0  0  0  0  0
    4.9459    2.3377    4.0420 H   0  0  0  0  0  0  0  0  0  0  0  0
    6.8815    0.8119   -0.7118 H   0  0  0  0  0  0  0  0  0  0  0  0
   -1.7710   -2.8969   -1.4606 H   0  0  0  0  0  0  0  0  0  0  0  0
   -3.7639   -3.6409   -2.7968 H   0  0  0  0  0  0  0  0  0  0  0  0
   -5.4411   -1.9184   -3.4962 H   0  0  0  0  0  0  0  0  0  0  0  0
   -5.1534    0.4204   -2.8994 H   0  0  0  0  0  0  0  0  0  0  0  0
   -3.1787    1.1267   -1.5812 H   0  0  0  0  0  0  0  0  0  0  0  0
    0.1884    0.9332    1.8970 H   0  0  0  0  0  0  0  0  0  0  0  0
   -2.3093    2.5925    1.3514 H   0  0  0  0  0  0  0  0  0  0  0  0
   -4.4804    2.9236    2.5879 H   0  0  0  0  0  0  0  0  0  0  0  0
   -5.8655    1.0225    3.1761 H   0  0  0  0  0  0  0  0  0  0  0  0
   -5.1318   -1.2988    2.5483 H   0  0  0  0  0  0  0  0  0  0  0  0
   -3.0246   -1.6217    1.3480 H   0  0  0  0  0  0  0  0  0  0  0  0
  1  2  1  0
  2  3  1  0
  3  4  2  0
  4  5  1  0
  5  6  2  0
  6  7  1  0
  7  8  1  0
  8  9  1  0
  7 10  2  0
 10 11  1  0
  5 12  1  0
 12 13  2  0
 13 14  1  0
 14 15  1  0
 15 16  2  0
 16 17  1  0
 17 18  2  0
 18 19  1  0
 19 20  2  0
 14 21  2  0
 21 22  1  0
 21 23  1  0
 23 24  2  0
 24 25  1  0
 25 26  2  0
 26 27  1  0
 27 28  2  0
 10  3  1  0
 22 12  1  0
 20 15  1  0
 28 23  1  0
  1 29  1  0
  1 30  1  0
  1 31  1  0
  4 32  1  0
  6 33  1  0
  9 34  1  0
  9 35  1  0
  9 36  1  0
 11 37  1  0
 16 38  1  0
 17 39  1  0
 18 40  1  0
 19 41  1  0
 20 42  1  0
 22 43  1  0
 24 44  1  0
 25 45  1  0
 26 46  1  0
 27 47  1  0
 28 48  1  0
M  END
>  <Batch_No>  (376) 
STK743323

>  <EC50_nM>  (376) 
1180

>  <Set>  (376) 
Probe-like

>  <Molecular_Weight>  (376) 
372.4165

>  <ALogP>  (376) 
5.124

$$$$
MMV007092
     RDKit          3D

102106  0  0  0  0  0  0  0  0999 V2000
  -15.3432   -0.1669   -2.3610 C   0  0  0  0  0  0  0  0  0  0  0  0
  -13.8618   -0.2434   -2.2050 C   0  0  0  0  0  0  0  0  0  0  0  0
  -13.4027   -1.4247   -1.5706 O   0  0  0  0  0  0  0  0  0  0  0  0
  -12.0237   -1.5489   -1.3998 C   0  0  0  0  0  0  0  0  0  0  0  0
  -11.5331   -2.7046   -0.7791 C   0  0  0  0  0  0  0  0  0  0  0  0
  -10.1549   -2.8412   -0.6020 C   0  0  0  0  0  0  0  0  0  0  0  0
   -9.2743   -1.8428   -1.0357 C   0  0  0  0  0  0  0  0  0  0  0  0
   -7.7990   -1.9805   -0.8618 C   0  0  0  0  0  0  0  0  0  0  0  0
   -7.2984   -1.5197    0.3816 N   0  0  0  0  0  0  0  0  0  0  0  0
   -5.8656   -1.6350    0.4859 C   0  0  0  0  0  0  0  0  0  0  0  0
   -5.2155   -0.6417   -0.4437 C   0  0  0  0  0  0  0  0  0  0  0  0
   -5.7486    0.6483   -0.4171 N   0  0  0  0  0  0  0  0  0  0  0  0
   -4.8902    1.7662   -0.5573 C   0  0  0  0  0  0  0  0  0  0  0  0
   -4.2603    1.9224   -1.9320 C   0  0  0  0  0  0  0  0  0  0  0  0
   -3.4804    0.8500   -2.2760 O   0  0  0  0  0  0  0  0  0  0  0  0
   -3.4736    3.2123   -1.9535 C   0  0  0  0  0  0  0  0  0  0  0  0
   -2.4067    3.3432   -1.1464 O   0  0  0  0  0  0  0  0  0  0  0  0
   -1.1940    2.8736   -0.8833 C   0  0  0  0  0  0  0  0  0  0  0  0
   -0.4914    1.8811   -1.5298 C   0  0  0  0  0  0  0  0  0  0  0  0
    0.7733    1.4714   -1.1656 C   0  0  0  0  0  0  0  0  0  0  0  0
    1.3913    2.0727   -0.0988 C   0  0  0  0  0  0  0  0  0  0  0  0
    2.6645    1.6849    0.2912 O   0  0  0  0  0  0  0  0  0  0  0  0
    3.2812    2.3012    1.3808 C   0  0  0  0  0  0  0  0  0  0  0  0
    4.6532    1.7285    1.5923 C   0  0  0  0  0  0  0  0  0  0  0  0
    5.3933    1.9705    0.4341 O   0  0  0  0  0  0  0  0  0  0  0  0
    4.5809    0.2424    1.8896 C   0  0  0  0  0  0  0  0  0  0  0  0
    5.8943   -0.3192    2.0839 N   0  0  0  0  0  0  0  0  0  0  0  0
    5.7269   -1.7631    2.3069 C   0  0  0  0  0  0  0  0  0  0  0  0
    7.1504   -2.3144    2.2132 C   0  0  0  0  0  0  0  0  0  0  0  0
    7.9351   -1.8328    3.3372 N   0  0  0  0  0  0  0  0  0  0  0  0
    9.2738   -2.3514    3.3103 C   0  0  0  0  0  0  0  0  0  0  0  0
   10.0022   -1.9126    2.0971 C   0  0  0  0  0  0  0  0  0  0  0  0
   10.7430   -0.7391    2.1407 C   0  0  0  0  0  0  0  0  0  0  0  0
   11.4509   -0.2598    1.0603 C   0  0  0  0  0  0  0  0  0  0  0  0
   11.4465   -0.9483   -0.1303 C   0  0  0  0  0  0  0  0  0  0  0  0
   12.1746   -0.4193   -1.1778 O   0  0  0  0  0  0  0  0  0  0  0  0
   12.2663   -1.0034   -2.4490 C   0  0  0  0  0  0  0  0  0  0  0  0
   13.1522   -0.1235   -3.3069 C   0  0  0  0  0  0  0  0  0  0  0  0
   10.7198   -2.1130   -0.1968 C   0  0  0  0  0  0  0  0  0  0  0  0
   10.0035   -2.5931    0.9045 C   0  0  0  0  0  0  0  0  0  0  0  0
    7.9156   -0.3790    3.3944 C   0  0  0  0  0  0  0  0  0  0  0  0
    6.5093    0.1700    3.3275 C   0  0  0  0  0  0  0  0  0  0  0  0
    0.7405    3.0707    0.5872 C   0  0  0  0  0  0  0  0  0  0  0  0
   -0.5106    3.4586    0.2081 C   0  0  0  0  0  0  0  0  0  0  0  0
   -7.0161    0.8979    0.1356 C   0  0  0  0  0  0  0  0  0  0  0  0
   -7.6845   -0.2308    0.8239 C   0  0  0  0  0  0  0  0  0  0  0  0
   -9.7667   -0.7080   -1.6457 C   0  0  0  0  0  0  0  0  0  0  0  0
  -11.1329   -0.5756   -1.8197 C   0  0  0  0  0  0  0  0  0  0  0  0
  -15.5857   -0.0874   -3.4359 H   0  0  0  0  0  0  0  0  0  0  0  0
  -15.7776   -1.1176   -1.9902 H   0  0  0  0  0  0  0  0  0  0  0  0
  -15.7241    0.7286   -1.8366 H   0  0  0  0  0  0  0  0  0  0  0  0
  -13.4723    0.6752   -1.6932 H   0  0  0  0  0  0  0  0  0  0  0  0
  -13.3569   -0.2276   -3.2153 H   0  0  0  0  0  0  0  0  0  0  0  0
  -12.1991   -3.4901   -0.4357 H   0  0  0  0  0  0  0  0  0  0  0  0
   -9.7646   -3.7492   -0.1134 H   0  0  0  0  0  0  0  0  0  0  0  0
   -7.2549   -1.5984   -1.7652 H   0  0  0  0  0  0  0  0  0  0  0  0
   -7.5897   -3.0930   -0.8964 H   0  0  0  0  0  0  0  0  0  0  0  0
   -5.6014   -1.4577    1.5396 H   0  0  0  0  0  0  0  0  0  0  0  0
   -5.5196   -2.6411    0.1435 H   0  0  0  0  0  0  0  0  0  0  0  0
   -5.2770   -1.0552   -1.4775 H   0  0  0  0  0  0  0  0  0  0  0  0
   -4.1318   -0.6212   -0.1980 H   0  0  0  0  0  0  0  0  0  0  0  0
   -5.5040    2.6799   -0.4034 H   0  0  0  0  0  0  0  0  0  0  0  0
   -4.0597    1.8004    0.1762 H   0  0  0  0  0  0  0  0  0  0  0  0
   -5.0797    2.0314   -2.7111 H   0  0  0  0  0  0  0  0  0  0  0  0
   -3.9431    0.2929   -2.9438 H   0  0  0  0  0  0  0  0  0  0  0  0
   -3.2229    3.4808   -3.0360 H   0  0  0  0  0  0  0  0  0  0  0  0
   -4.2071    4.0665   -1.7100 H   0  0  0  0  0  0  0  0  0  0  0  0
   -0.9229    1.3874   -2.3826 H   0  0  0  0  0  0  0  0  0  0  0  0
    1.3195    0.6833   -1.6848 H   0  0  0  0  0  0  0  0  0  0  0  0
    3.3417    3.3849    1.1568 H   0  0  0  0  0  0  0  0  0  0  0  0
    2.7170    2.2181    2.3330 H   0  0  0  0  0  0  0  0  0  0  0  0
    5.1224    2.3031    2.4123 H   0  0  0  0  0  0  0  0  0  0  0  0
    6.0030    2.7450    0.5171 H   0  0  0  0  0  0  0  0  0  0  0  0
    3.9957   -0.2993    1.1477 H   0  0  0  0  0  0  0  0  0  0  0  0
    4.0329    0.1700    2.8668 H   0  0  0  0  0  0  0  0  0  0  0  0
    5.1279   -2.2494    1.5372 H   0  0  0  0  0  0  0  0  0  0  0  0
    5.4200   -1.9435    3.3491 H   0  0  0  0  0  0  0  0  0  0  0  0
    7.5536   -1.9537    1.2590 H   0  0  0  0  0  0  0  0  0  0  0  0
    7.1590   -3.4189    2.2466 H   0  0  0  0  0  0  0  0  0  0  0  0
    9.3278   -3.4374    3.3621 H   0  0  0  0  0  0  0  0  0  0  0  0
    9.8204   -1.9027    4.1928 H   0  0  0  0  0  0  0  0  0  0  0  0
   10.7564   -0.1878    3.0664 H   0  0  0  0  0  0  0  0  0  0  0  0
   11.9998    0.6744    1.2060 H   0  0  0  0  0  0  0  0  0  0  0  0
   11.3101   -1.0941   -2.9707 H   0  0  0  0  0  0  0  0  0  0  0  0
   12.7580   -1.9879   -2.3915 H   0  0  0  0  0  0  0  0  0  0  0  0
   13.5829   -0.7226   -4.1205 H   0  0  0  0  0  0  0  0  0  0  0  0
   12.5338    0.6853   -3.7134 H   0  0  0  0  0  0  0  0  0  0  0  0
   14.0044    0.2972   -2.7319 H   0  0  0  0  0  0  0  0  0  0  0  0
   10.7092   -2.6642   -1.1310 H   0  0  0  0  0  0  0  0  0  0  0  0
    9.4307   -3.5133    0.8513 H   0  0  0  0  0  0  0  0  0  0  0  0
    8.3900   -0.0324    4.3098 H   0  0  0  0  0  0  0  0  0  0  0  0
    8.4311    0.0174    2.4808 H   0  0  0  0  0  0  0  0  0  0  0  0
    5.8803   -0.1590    4.1779 H   0  0  0  0  0  0  0  0  0  0  0  0
    6.5867    1.2601    3.3637 H   0  0  0  0  0  0  0  0  0  0  0  0
    1.2564    3.5187    1.4193 H   0  0  0  0  0  0  0  0  0  0  0  0
   -0.9793    4.2522    0.7848 H   0  0  0  0  0  0  0  0  0  0  0  0
   -7.6467    1.3840   -0.6673 H   0  0  0  0  0  0  0  0  0  0  0  0
   -6.9012    1.7400    0.8837 H   0  0  0  0  0  0  0  0  0  0  0  0
   -7.4102   -0.1769    1.9214 H   0  0  0  0  0  0  0  0  0  0  0  0
   -8.7803   -0.0533    0.8193 H   0  0  0  0  0  0  0  0  0  0  0  0
   -9.1518    0.1030   -2.0076 H   0  0  0  0  0  0  0  0  0  0  0  0
  -11.5214    0.3257   -2.3033 H   0  0  0  0  0  0  0  0  0  0  0  0
  1  2  1  0
  2  3  1  0
  3  4  1  0
  4  5  2  0
  5  6  1  0
  6  7  2  0
  7  8  1  0
  8  9  1  0
  9 10  1  0
 10 11  1  0
 11 12  1  0
 12 13  1  0
 13 14  1  0
 14 15  1  0
 14 16  1  0
 16 17  1  0
 17 18  1  0
 18 19  2  0
 19 20  1  0
 20 21  2  0
 21 22  1  0
 22 23  1  0
 23 24  1  0
 24 25  1  0
 24 26  1  0
 26 27  1  0
 27 28  1  0
 28 29  1  0
 29 30  1  0
 30 31  1  0
 31 32  1  0
 32 33  2  0
 33 34  1  0
 34 35  2  0
 35 36  1  0
 36 37  1  0
 37 38  1  0
 35 39  1  0
 39 40  2  0
 30 41  1  0
 41 42  1  0
 21 43  1  0
 43 44  2  0
 12 45  1  0
 45 46  1  0
  7 47  1  0
 47 48  2  0
 48  4  1  0
 46  9  1  0
 44 18  1  0
 42 27  1  0
 40 32  1  0
  1 49  1  0
  1 50  1  0
  1 51  1  0
  2 52  1  0
  2 53  1  0
  5 54  1  0
  6 55  1  0
  8 56  1  0
  8 57  1  0
 10 58  1  0
 10 59  1  0
 11 60  1  0
 11 61  1  0
 13 62  1  0
 13 63  1  0
 14 64  1  0
 15 65  1  0
 16 66  1  0
 16 67  1  0
 19 68  1  0
 20 69  1  0
 23 70  1  0
 23 71  1  0
 24 72  1  0
 25 73  1  0
 26 74  1  0
 26 75  1  0
 28 76  1  0
 28 77  1  0
 29 78  1  0
 29 79  1  0
 31 80  1  0
 31 81  1  0
 33 82  1  0
 34 83  1  0
 37 84  1  0
 37 85  1  0
 38 86  1  0
 38 87  1  0
 38 88  1  0
 39 89  1  0
 40 90  1  0
 41 91  1  0
 41 92  1  0
 42 93  1  0
 42 94  1  0
 43 95  1  0
 44 96  1  0
 45 97  1  0
 45 98  1  0
 46 99  1  0
 46100  1  0
 47101  1  0
 48102  1  0
M  END
>  <Batch_No>  (377) 
STK699776

>  <EC50_nM>  (377) 
1200

>  <Set>  (377) 
Probe-like

>  <Molecular_Weight>  (377) 
662.85856

>  <ALogP>  (377) 
4.799

$$$$
MMV665898
     RDKit          3D

 51 54  0  0  0  0  0  0  0  0999 V2000
   -5.3858   -3.6383   -1.0419 C   0  0  0  0  0  0  0  0  0  0  0  0
   -5.9920   -2.3681   -0.9005 O   0  0  0  0  0  0  0  0  0  0  0  0
   -5.1593   -1.2734   -0.7120 C   0  0  0  0  0  0  0  0  0  0  0  0
   -3.7754   -1.3856   -0.6590 C   0  0  0  0  0  0  0  0  0  0  0  0
   -3.0187   -0.2531   -0.4692 C   0  0  0  0  0  0  0  0  0  0  0  0
   -3.6644    0.9585   -0.3376 C   0  0  0  0  0  0  0  0  0  0  0  0
   -5.0268    1.0774   -0.3886 C   0  0  0  0  0  0  0  0  0  0  0  0
   -5.6629    2.3252   -0.2518 O   0  0  0  0  0  0  0  0  0  0  0  0
   -4.8436    3.4858   -0.0550 C   0  0  0  0  0  0  0  0  0  0  0  0
   -5.7879   -0.0400   -0.5767 C   0  0  0  0  0  0  0  0  0  0  0  0
   -7.1715    0.0927   -0.6269 O   0  0  0  0  0  0  0  0  0  0  0  0
   -7.9676    0.0023    0.5417 C   0  0  0  0  0  0  0  0  0  0  0  0
   -1.5687   -0.3924   -0.4166 C   0  0  0  0  0  0  0  0  0  0  0  0
   -1.0950   -1.5488   -0.5494 O   0  0  0  0  0  0  0  0  0  0  0  0
   -0.6934    0.7070   -0.2253 N   0  0  0  0  0  0  0  0  0  0  0  0
    0.7311    0.5643   -0.1745 C   0  0  0  0  0  0  0  0  0  0  0  0
    1.5385    0.6406   -1.2718 C   0  0  0  0  0  0  0  0  0  0  0  0
    2.9090    0.4985   -1.1882 C   0  0  0  0  0  0  0  0  0  0  0  0
    3.4762    0.2707    0.0566 C   0  0  0  0  0  0  0  0  0  0  0  0
    2.6616    0.1955    1.1509 C   0  0  0  0  0  0  0  0  0  0  0  0
    1.2902    0.3378    1.0664 C   0  0  0  0  0  0  0  0  0  0  0  0
    4.9206    0.1164    0.1768 C   0  0  0  0  0  0  0  0  0  0  0  0
    5.5870   -0.1068    1.3217 N   0  0  0  0  0  0  0  0  0  0  0  0
    6.9074   -0.1984    1.0776 C   0  0  0  0  0  0  0  0  0  0  0  0
    7.9991   -0.4162    1.8936 C   0  0  0  0  0  0  0  0  0  0  0  0
    9.2400   -0.4500    1.2894 C   0  0  0  0  0  0  0  0  0  0  0  0
    9.3900   -0.2754   -0.0634 C   0  0  0  0  0  0  0  0  0  0  0  0
    8.2784   -0.0558   -0.8784 C   0  0  0  0  0  0  0  0  0  0  0  0
    7.0259   -0.0180   -0.2958 C   0  0  0  0  0  0  0  0  0  0  0  0
    5.7969    0.1743   -0.8353 N   0  0  0  0  0  0  0  0  0  0  0  0
   -4.9683   -4.0076   -0.1021 H   0  0  0  0  0  0  0  0  0  0  0  0
   -4.5809   -3.6006   -1.7987 H   0  0  0  0  0  0  0  0  0  0  0  0
   -6.1315   -4.3913   -1.3768 H   0  0  0  0  0  0  0  0  0  0  0  0
   -3.3274   -2.3638   -0.7688 H   0  0  0  0  0  0  0  0  0  0  0  0
   -3.0925    1.8605   -0.1879 H   0  0  0  0  0  0  0  0  0  0  0  0
   -4.1294    3.4622   -0.9258 H   0  0  0  0  0  0  0  0  0  0  0  0
   -5.4884    4.3690   -0.0538 H   0  0  0  0  0  0  0  0  0  0  0  0
   -4.2779    3.3656    0.8849 H   0  0  0  0  0  0  0  0  0  0  0  0
   -7.3660   -0.2504    1.4256 H   0  0  0  0  0  0  0  0  0  0  0  0
   -8.7827   -0.7289    0.4111 H   0  0  0  0  0  0  0  0  0  0  0  0
   -8.4399    0.9911    0.7304 H   0  0  0  0  0  0  0  0  0  0  0  0
   -1.0642    1.6593   -0.1150 H   0  0  0  0  0  0  0  0  0  0  0  0
    1.0503    0.8209   -2.2304 H   0  0  0  0  0  0  0  0  0  0  0  0
    3.5356    0.5623   -2.0730 H   0  0  0  0  0  0  0  0  0  0  0  0
    3.1108    0.0156    2.1334 H   0  0  0  0  0  0  0  0  0  0  0  0
    0.6841    0.2689    1.9733 H   0  0  0  0  0  0  0  0  0  0  0  0
    7.8611   -0.5518    2.9590 H   0  0  0  0  0  0  0  0  0  0  0  0
   10.0882   -0.6206    1.9335 H   0  0  0  0  0  0  0  0  0  0  0  0
   10.3701   -0.3052   -0.5183 H   0  0  0  0  0  0  0  0  0  0  0  0
    8.3952    0.0830   -1.9523 H   0  0  0  0  0  0  0  0  0  0  0  0
    5.6149    0.3352   -1.8632 H   0  0  0  0  0  0  0  0  0  0  0  0
  1  2  1  0
  2  3  1  0
  3  4  2  0
  4  5  1  0
  5  6  2  0
  6  7  1  0
  7  8  1  0
  8  9  1  0
  7 10  2  0
 10 11  1  0
 11 12  1  0
  5 13  1  0
 13 14  2  0
 13 15  1  0
 15 16  1  0
 16 17  2  0
 17 18  1  0
 18 19  2  0
 19 20  1  0
 20 21  2  0
 19 22  1  0
 22 23  2  0
 23 24  1  0
 24 25  2  0
 25 26  1  0
 26 27  2  0
 27 28  1  0
 28 29  2  0
 29 30  1  0
 10  3  1  0
 21 16  1  0
 30 22  1  0
 29 24  1  0
  1 31  1  0
  1 32  1  0
  1 33  1  0
  4 34  1  0
  6 35  1  0
  9 36  1  0
  9 37  1  0
  9 38  1  0
 12 39  1  0
 12 40  1  0
 12 41  1  0
 15 42  1  0
 17 43  1  0
 18 44  1  0
 20 45  1  0
 21 46  1  0
 25 47  1  0
 26 48  1  0
 27 49  1  0
 28 50  1  0
 30 51  1  0
M  END
>  <Batch_No>  (378) 
OSSK_336634

>  <EC50_nM>  (378) 
1220

>  <Set>  (378) 
Probe-like

>  <Molecular_Weight>  (378) 
403.43054

>  <ALogP>  (378) 
4.006

$$$$
MMV665864
     RDKit          3D

 51 51  0  0  0  0  0  0  0  0999 V2000
    5.4711   -0.7584    0.5791 C   0  0  0  0  0  0  0  0  0  0  0  0
    4.1663   -0.6539    1.3456 C   0  0  0  0  0  0  0  0  0  0  0  0
    3.0851   -0.0284    0.4672 C   0  0  0  0  0  0  0  0  0  0  0  0
    2.8502   -0.8661   -0.7680 C   0  0  0  0  0  0  0  0  0  0  0  0
    1.8412   -0.3244   -1.6304 N   0  0  0  0  0  0  0  0  0  0  0  0
    0.4901   -0.1061   -1.2571 C   0  0  0  0  0  0  0  0  0  0  0  0
   -0.3713   -1.1251   -1.4085 N   0  0  0  0  0  0  0  0  0  0  0  0
   -1.6791   -1.0277   -1.0891 C   0  0  0  0  0  0  0  0  0  0  0  0
   -2.4861   -2.1605   -1.2904 N   0  0  0  0  0  0  0  0  0  0  0  0
   -2.6194   -3.1085   -0.2096 C   0  0  0  0  0  0  0  0  0  0  0  0
   -3.2241   -2.3828    0.9727 C   0  0  0  0  0  0  0  0  0  0  0  0
   -3.5953   -4.1830   -0.6400 C   0  0  0  0  0  0  0  0  0  0  0  0
   -1.2968   -3.6637    0.2406 C   0  0  0  0  0  0  0  0  0  0  0  0
   -2.1064    0.1496   -0.6022 N   0  0  0  0  0  0  0  0  0  0  0  0
   -1.2937    1.2087   -0.4269 C   0  0  0  0  0  0  0  0  0  0  0  0
   -1.7569    2.4562    0.0879 N   0  0  0  0  0  0  0  0  0  0  0  0
   -0.8127    3.5488    0.2449 C   0  0  0  0  0  0  0  0  0  0  0  0
   -0.1975    3.9007   -1.1064 C   0  0  0  0  0  0  0  0  0  0  0  0
   -1.6062    4.7855    0.6524 C   0  0  0  0  0  0  0  0  0  0  0  0
    0.1992    3.2838    1.3094 C   0  0  0  0  0  0  0  0  0  0  0  0
    0.0199    1.0514   -0.7675 N   0  0  0  0  0  0  0  0  0  0  0  0
    5.6101    0.1821    0.0173 H   0  0  0  0  0  0  0  0  0  0  0  0
    6.3378   -0.8741    1.2443 H   0  0  0  0  0  0  0  0  0  0  0  0
    5.3616   -1.5866   -0.1549 H   0  0  0  0  0  0  0  0  0  0  0  0
    4.3527   -0.0219    2.2367 H   0  0  0  0  0  0  0  0  0  0  0  0
    3.8030   -1.6340    1.7190 H   0  0  0  0  0  0  0  0  0  0  0  0
    3.4006    0.9800    0.1727 H   0  0  0  0  0  0  0  0  0  0  0  0
    2.1375    0.0283    1.0202 H   0  0  0  0  0  0  0  0  0  0  0  0
    2.6557   -1.9392   -0.5014 H   0  0  0  0  0  0  0  0  0  0  0  0
    3.8283   -0.8822   -1.3013 H   0  0  0  0  0  0  0  0  0  0  0  0
    2.0820   -0.0531   -2.6308 H   0  0  0  0  0  0  0  0  0  0  0  0
   -2.9601   -2.2764   -2.2129 H   0  0  0  0  0  0  0  0  0  0  0  0
   -3.8579   -3.0434    1.6091 H   0  0  0  0  0  0  0  0  0  0  0  0
   -2.4038   -1.9419    1.5737 H   0  0  0  0  0  0  0  0  0  0  0  0
   -3.8595   -1.5743    0.6000 H   0  0  0  0  0  0  0  0  0  0  0  0
   -4.2955   -3.7364   -1.3848 H   0  0  0  0  0  0  0  0  0  0  0  0
   -3.0596   -5.0485   -1.1192 H   0  0  0  0  0  0  0  0  0  0  0  0
   -4.2505   -4.5341    0.2004 H   0  0  0  0  0  0  0  0  0  0  0  0
   -0.4261   -3.3048   -0.3425 H   0  0  0  0  0  0  0  0  0  0  0  0
   -1.3561   -4.7743    0.1887 H   0  0  0  0  0  0  0  0  0  0  0  0
   -1.0661   -3.4137    1.2993 H   0  0  0  0  0  0  0  0  0  0  0  0
   -2.7678    2.5232    0.3298 H   0  0  0  0  0  0  0  0  0  0  0  0
    0.6465    3.2681   -1.3826 H   0  0  0  0  0  0  0  0  0  0  0  0
   -1.0684    3.8278   -1.8231 H   0  0  0  0  0  0  0  0  0  0  0  0
    0.1245    4.9614   -1.1458 H   0  0  0  0  0  0  0  0  0  0  0  0
   -1.0312    5.6816    0.3089 H   0  0  0  0  0  0  0  0  0  0  0  0
   -2.5762    4.7124    0.1215 H   0  0  0  0  0  0  0  0  0  0  0  0
   -1.7773    4.7918    1.7468 H   0  0  0  0  0  0  0  0  0  0  0  0
   -0.2774    2.6120    2.0745 H   0  0  0  0  0  0  0  0  0  0  0  0
    0.4718    4.2077    1.8951 H   0  0  0  0  0  0  0  0  0  0  0  0
    1.1436    2.8664    0.9376 H   0  0  0  0  0  0  0  0  0  0  0  0
  1  2  1  0
  2  3  1  0
  3  4  1  0
  4  5  1  0
  5  6  1  0
  6  7  2  0
  7  8  1  0
  8  9  1  0
  9 10  1  0
 10 11  1  0
 10 12  1  0
 10 13  1  0
  8 14  2  0
 14 15  1  0
 15 16  1  0
 16 17  1  0
 17 18  1  0
 17 19  1  0
 17 20  1  0
 15 21  2  0
 21  6  1  0
  1 22  1  0
  1 23  1  0
  1 24  1  0
  2 25  1  0
  2 26  1  0
  3 27  1  0
  3 28  1  0
  4 29  1  0
  4 30  1  0
  5 31  1  0
  9 32  1  0
 11 33  1  0
 11 34  1  0
 11 35  1  0
 12 36  1  0
 12 37  1  0
 12 38  1  0
 13 39  1  0
 13 40  1  0
 13 41  1  0
 16 42  1  0
 18 43  1  0
 18 44  1  0
 18 45  1  0
 19 46  1  0
 19 47  1  0
 19 48  1  0
 20 49  1  0
 20 50  1  0
 20 51  1  0
M  END
>  <Batch_No>  (379) 
OSSK_797266

>  <EC50_nM>  (379) 
706

>  <Set>  (379) 
Probe-like

>  <Molecular_Weight>  (379) 
294.43889

>  <ALogP>  (379) 
2.708

$$$$
MMV665814
     RDKit          3D

 53 57  0  0  0  0  0  0  0  0999 V2000
   -0.1709    2.6768   -0.3398 O   0  0  0  0  0  0  0  0  0  0  0  0
   -1.5041    2.2412   -0.2118 C   0  0  0  0  0  0  0  0  0  0  0  0
   -1.8598    0.9360   -0.5844 C   0  0  0  0  0  0  0  0  0  0  0  0
   -3.1727    0.5794   -0.4370 C   0  0  0  0  0  0  0  0  0  0  0  0
   -4.1051    1.4924    0.0674 C   0  0  0  0  0  0  0  0  0  0  0  0
   -3.7597    2.7582    0.4295 C   0  0  0  0  0  0  0  0  0  0  0  0
   -4.6376    3.6928    0.9296 C   0  0  0  0  0  0  0  0  0  0  0  0
   -4.1672    4.9538    1.2641 C   0  0  0  0  0  0  0  0  0  0  0  0
   -2.8420    5.2995    1.1097 C   0  0  0  0  0  0  0  0  0  0  0  0
   -2.0060    4.3777    0.6223 N   0  0  0  0  0  0  0  0  0  0  0  0
   -2.4376    3.1301    0.2844 C   0  0  0  0  0  0  0  0  0  0  0  0
   -0.7816    0.0900   -1.1084 C   0  0  0  0  0  0  0  0  0  0  0  0
   -1.3155   -1.1058   -1.6941 N   0  0  0  0  0  0  0  0  0  0  0  0
   -1.8765   -2.1743   -0.9306 C   0  0  0  0  0  0  0  0  0  0  0  0
   -2.4701   -3.2792   -1.5040 C   0  0  0  0  0  0  0  0  0  0  0  0
   -2.9946   -4.3195   -0.7662 C   0  0  0  0  0  0  0  0  0  0  0  0
   -2.9387   -4.2840    0.6237 C   0  0  0  0  0  0  0  0  0  0  0  0
   -2.3423   -3.1728    1.1825 C   0  0  0  0  0  0  0  0  0  0  0  0
   -1.8405   -2.1756    0.4349 N   0  0  0  0  0  0  0  0  0  0  0  0
    0.2697   -0.2264   -0.0946 C   0  0  0  0  0  0  0  0  0  0  0  0
    0.2251    0.2167    1.2052 C   0  0  0  0  0  0  0  0  0  0  0  0
    1.2190   -0.0701    2.1232 C   0  0  0  0  0  0  0  0  0  0  0  0
    2.3009   -0.8286    1.7329 C   0  0  0  0  0  0  0  0  0  0  0  0
    2.3340   -1.2710    0.4159 C   0  0  0  0  0  0  0  0  0  0  0  0
    3.4685   -2.0406    0.0847 O   0  0  0  0  0  0  0  0  0  0  0  0
    4.6267   -1.3931   -0.3852 C   0  0  0  0  0  0  0  0  0  0  0  0
    5.5418   -0.9979    0.5729 C   0  0  0  0  0  0  0  0  0  0  0  0
    6.7126   -0.3540    0.2197 C   0  0  0  0  0  0  0  0  0  0  0  0
    6.9332   -0.1214   -1.1175 C   0  0  0  0  0  0  0  0  0  0  0  0
    6.0157   -0.5171   -2.0859 C   0  0  0  0  0  0  0  0  0  0  0  0
    4.8358   -1.1655   -1.7345 C   0  0  0  0  0  0  0  0  0  0  0  0
    1.3481   -0.9868   -0.4955 C   0  0  0  0  0  0  0  0  0  0  0  0
    0.2410    3.0839    0.4897 H   0  0  0  0  0  0  0  0  0  0  0  0
   -3.5321   -0.3873   -0.7081 H   0  0  0  0  0  0  0  0  0  0  0  0
   -5.1553    1.2115    0.1873 H   0  0  0  0  0  0  0  0  0  0  0  0
   -5.6629    3.4239    1.0488 H   0  0  0  0  0  0  0  0  0  0  0  0
   -4.8245    5.7062    1.6563 H   0  0  0  0  0  0  0  0  0  0  0  0
   -2.4392    6.2595    1.3558 H   0  0  0  0  0  0  0  0  0  0  0  0
   -0.3215    0.6818   -1.9597 H   0  0  0  0  0  0  0  0  0  0  0  0
   -1.3238   -1.2664   -2.7448 H   0  0  0  0  0  0  0  0  0  0  0  0
   -2.5392   -3.3556   -2.5783 H   0  0  0  0  0  0  0  0  0  0  0  0
   -3.4573   -5.1806   -1.2126 H   0  0  0  0  0  0  0  0  0  0  0  0
   -3.3344   -5.0709    1.2426 H   0  0  0  0  0  0  0  0  0  0  0  0
   -2.2693   -3.0885    2.2482 H   0  0  0  0  0  0  0  0  0  0  0  0
   -0.6037    0.8067    1.5646 H   0  0  0  0  0  0  0  0  0  0  0  0
    1.1344    0.3062    3.1405 H   0  0  0  0  0  0  0  0  0  0  0  0
    3.0784   -1.0602    2.4276 H   0  0  0  0  0  0  0  0  0  0  0  0
    5.3455   -1.1915    1.6152 H   0  0  0  0  0  0  0  0  0  0  0  0
    7.4288   -0.0442    0.9701 H   0  0  0  0  0  0  0  0  0  0  0  0
    7.8389    0.3854   -1.4798 H   0  0  0  0  0  0  0  0  0  0  0  0
    6.2198   -0.3197   -3.1214 H   0  0  0  0  0  0  0  0  0  0  0  0
    4.1033   -1.4852   -2.4619 H   0  0  0  0  0  0  0  0  0  0  0  0
    1.4647   -1.3759   -1.4931 H   0  0  0  0  0  0  0  0  0  0  0  0
  1  2  1  0
  2  3  2  0
  3  4  1  0
  4  5  2  0
  5  6  1  0
  6  7  2  0
  7  8  1  0
  8  9  2  0
  9 10  1  0
 10 11  2  0
  3 12  1  0
 12 13  1  0
 13 14  1  0
 14 15  2  0
 15 16  1  0
 16 17  2  0
 17 18  1  0
 18 19  2  0
 12 20  1  0
 20 21  2  0
 21 22  1  0
 22 23  2  0
 23 24  1  0
 24 25  1  0
 25 26  1  0
 26 27  2  0
 27 28  1  0
 28 29  2  0
 29 30  1  0
 30 31  2  0
 24 32  2  0
 11  2  1  0
 11  6  1  0
 19 14  1  0
 32 20  1  0
 31 26  1  0
  1 33  1  0
  4 34  1  0
  5 35  1  0
  7 36  1  0
  8 37  1  0
  9 38  1  0
 12 39  1  0
 13 40  1  0
 15 41  1  0
 16 42  1  0
 17 43  1  0
 18 44  1  0
 21 45  1  0
 22 46  1  0
 23 47  1  0
 27 48  1  0
 28 49  1  0
 29 50  1  0
 30 51  1  0
 31 52  1  0
 32 53  1  0
M  END
>  <Batch_No>  (380) 
OSSL_268118

>  <EC50_nM>  (380) 
1010

>  <Set>  (380) 
Probe-like

>  <Molecular_Weight>  (380) 
419.47453

>  <ALogP>  (380) 
5.727

$$$$
MMV007285
     RDKit          3D

 36 38  0  0  0  0  0  0  0  0999 V2000
    6.8514   -0.0221   -0.2403 C   0  0  0  0  0  0  0  0  0  0  0  0
    5.4093    0.4198   -0.2687 C   0  0  0  0  0  0  0  0  0  0  0  0
    4.5366   -0.5923    0.2425 O   0  0  0  0  0  0  0  0  0  0  0  0
    3.1687   -0.3034    0.2695 C   0  0  0  0  0  0  0  0  0  0  0  0
    2.6912    0.9094   -0.1803 C   0  0  0  0  0  0  0  0  0  0  0  0
    1.3388    1.1702   -0.1438 C   0  0  0  0  0  0  0  0  0  0  0  0
    0.4118    0.2474    0.3359 C   0  0  0  0  0  0  0  0  0  0  0  0
   -0.9713    0.5908    0.3720 N   0  0  0  0  0  0  0  0  0  0  0  0
   -2.0133   -0.2392   -0.0763 C   0  0  0  0  0  0  0  0  0  0  0  0
   -1.7743   -1.4605   -0.6702 C   0  0  0  0  0  0  0  0  0  0  0  0
   -2.8114   -2.2950   -1.0992 C   0  0  0  0  0  0  0  0  0  0  0  0
   -4.0945   -1.8991   -0.9307 N   0  0  0  0  0  0  0  0  0  0  0  0
   -4.3683   -0.7102   -0.3542 C   0  0  0  0  0  0  0  0  0  0  0  0
   -5.6936   -0.3688   -0.2130 C   0  0  0  0  0  0  0  0  0  0  0  0
   -6.0548    0.8102    0.3578 C   0  0  0  0  0  0  0  0  0  0  0  0
   -7.7186    1.3105    0.5702 Cl  0  0  0  0  0  0  0  0  0  0  0  0
   -5.0553    1.6554    0.7917 C   0  0  0  0  0  0  0  0  0  0  0  0
   -3.7261    1.3123    0.6498 C   0  0  0  0  0  0  0  0  0  0  0  0
   -3.3325    0.1259    0.0759 C   0  0  0  0  0  0  0  0  0  0  0  0
    0.9164   -0.9490    0.7768 C   0  0  0  0  0  0  0  0  0  0  0  0
    2.2804   -1.2408    0.7515 C   0  0  0  0  0  0  0  0  0  0  0  0
    7.3305    0.3685    0.6754 H   0  0  0  0  0  0  0  0  0  0  0  0
    6.8471   -1.1214   -0.1253 H   0  0  0  0  0  0  0  0  0  0  0  0
    7.4196    0.3208   -1.1279 H   0  0  0  0  0  0  0  0  0  0  0  0
    5.1091    0.7259   -1.2921 H   0  0  0  0  0  0  0  0  0  0  0  0
    5.3283    1.3495    0.3395 H   0  0  0  0  0  0  0  0  0  0  0  0
    3.4216    1.6252   -0.5536 H   0  0  0  0  0  0  0  0  0  0  0  0
    0.9741    2.1407   -0.5055 H   0  0  0  0  0  0  0  0  0  0  0  0
   -1.1578    1.5542    0.7746 H   0  0  0  0  0  0  0  0  0  0  0  0
   -0.7818   -1.8421   -0.8544 H   0  0  0  0  0  0  0  0  0  0  0  0
   -2.6045   -3.2543   -1.5646 H   0  0  0  0  0  0  0  0  0  0  0  0
   -6.4649   -1.0422   -0.5582 H   0  0  0  0  0  0  0  0  0  0  0  0
   -5.3366    2.6075    1.2529 H   0  0  0  0  0  0  0  0  0  0  0  0
   -3.0058    2.0260    1.0145 H   0  0  0  0  0  0  0  0  0  0  0  0
    0.2873   -1.7242    1.1835 H   0  0  0  0  0  0  0  0  0  0  0  0
    2.6431   -2.2056    1.1111 H   0  0  0  0  0  0  0  0  0  0  0  0
  1  2  1  0
  2  3  1  0
  3  4  1  0
  4  5  2  0
  5  6  1  0
  6  7  2  0
  7  8  1  0
  8  9  1  0
  9 10  2  0
 10 11  1  0
 11 12  2  0
 12 13  1  0
 13 14  2  0
 14 15  1  0
 15 16  1  0
 15 17  2  0
 17 18  1  0
 18 19  2  0
  7 20  1  0
 20 21  2  0
 21  4  1  0
 19  9  1  0
 19 13  1  0
  1 22  1  0
  1 23  1  0
  1 24  1  0
  2 25  1  0
  2 26  1  0
  5 27  1  0
  6 28  1  0
  8 29  1  0
 10 30  1  0
 11 31  1  0
 14 32  1  0
 17 33  1  0
 18 34  1  0
 20 35  1  0
 21 36  1  0
M  END
>  <Batch_No>  (381) 
7653046

>  <EC50_nM>  (381) 
4000

>  <Set>  (381) 
Probe-like

>  <Molecular_Weight>  (381) 
298.7668

>  <ALogP>  (381) 
4.563

$$$$
MMV396663
     RDKit          3D

 66 70  0  0  0  0  0  0  0  0999 V2000
   -2.4209   -1.1784    0.0987 C   0  0  0  0  0  0  0  0  0  0  0  0
   -1.1787   -0.5920    0.7090 C   0  0  0  0  0  0  0  0  0  0  0  0
   -0.9594   -0.9754    2.1125 C   0  0  0  0  0  0  0  0  0  0  0  0
   -1.5795   -0.2088    3.1085 C   0  0  0  0  0  0  0  0  0  0  0  0
   -1.4168   -0.4875    4.4486 C   0  0  0  0  0  0  0  0  0  0  0  0
   -0.6168   -1.5555    4.7975 C   0  0  0  0  0  0  0  0  0  0  0  0
   -0.0126   -2.3042    3.8722 N   0  0  0  0  0  0  0  0  0  0  0  0
   -0.1838   -2.0150    2.5531 C   0  0  0  0  0  0  0  0  0  0  0  0
    0.0227   -0.8178   -0.0174 N   0  0  0  0  0  0  0  0  0  0  0  0
    1.1171   -0.1633    0.6904 C   0  0  0  0  0  0  0  0  0  0  0  0
    2.0195    0.6243   -0.2601 C   0  0  0  0  0  0  0  0  0  0  0  0
    2.4626   -0.3252   -1.3394 C   0  0  0  0  0  0  0  0  0  0  0  0
    1.2689   -0.8223   -2.0777 C   0  0  0  0  0  0  0  0  0  0  0  0
   -0.0381   -0.4224   -1.4013 C   0  0  0  0  0  0  0  0  0  0  0  0
    3.5357    0.2274   -2.2194 C   0  0  0  0  0  0  0  0  0  0  0  0
    4.7598    0.5721   -1.4516 C   0  0  0  0  0  0  0  0  0  0  0  0
    5.7141   -0.4319   -1.3106 C   0  0  0  0  0  0  0  0  0  0  0  0
    6.8955   -0.2291   -0.6164 C   0  0  0  0  0  0  0  0  0  0  0  0
    7.1056    1.0127   -0.0596 C   0  0  0  0  0  0  0  0  0  0  0  0
    6.1663    2.0154   -0.1931 C   0  0  0  0  0  0  0  0  0  0  0  0
    4.9787    1.8128   -0.8905 C   0  0  0  0  0  0  0  0  0  0  0  0
   -2.5363   -2.4637   -0.2686 C   0  0  0  0  0  0  0  0  0  0  0  0
   -1.4409   -3.4852   -0.1289 C   0  0  0  0  0  0  0  0  0  0  0  0
   -3.7558   -2.8580   -0.8169 C   0  0  0  0  0  0  0  0  0  0  0  0
   -4.1372   -4.2257   -1.3029 C   0  0  0  0  0  0  0  0  0  0  0  0
   -4.8109   -1.4419   -0.8477 S   0  0  0  0  0  0  0  0  0  0  0  0
   -3.5182   -0.3585   -0.0980 C   0  0  0  0  0  0  0  0  0  0  0  0
   -3.7345    0.9819    0.1620 N   0  0  0  0  0  0  0  0  0  0  0  0
   -3.4806    2.0628   -0.7330 C   0  0  0  0  0  0  0  0  0  0  0  0
   -3.0157    1.8454   -1.8832 O   0  0  0  0  0  0  0  0  0  0  0  0
   -3.7538    3.4428   -0.3360 C   0  0  0  0  0  0  0  0  0  0  0  0
   -3.5212    4.5159   -1.1747 C   0  0  0  0  0  0  0  0  0  0  0  0
   -3.8991    5.6394   -0.4508 C   0  0  0  0  0  0  0  0  0  0  0  0
   -4.3423    5.1943    0.7910 C   0  0  0  0  0  0  0  0  0  0  0  0
   -4.2321    3.8692    0.8024 O   0  0  0  0  0  0  0  0  0  0  0  0
   -1.2864    0.5495    0.7013 H   0  0  0  0  0  0  0  0  0  0  0  0
   -2.1947    0.6138    2.8118 H   0  0  0  0  0  0  0  0  0  0  0  0
   -1.9202    0.1374    5.1950 H   0  0  0  0  0  0  0  0  0  0  0  0
   -0.5109   -1.7466    5.8604 H   0  0  0  0  0  0  0  0  0  0  0  0
    0.3431   -2.6559    1.8693 H   0  0  0  0  0  0  0  0  0  0  0  0
    0.7380    0.5869    1.4231 H   0  0  0  0  0  0  0  0  0  0  0  0
    1.7947   -0.9104    1.1522 H   0  0  0  0  0  0  0  0  0  0  0  0
    2.9160    0.8726    0.3476 H   0  0  0  0  0  0  0  0  0  0  0  0
    1.5370    1.5382   -0.6201 H   0  0  0  0  0  0  0  0  0  0  0  0
    2.9004   -1.2115   -0.8050 H   0  0  0  0  0  0  0  0  0  0  0  0
    1.2955   -1.8857   -2.3711 H   0  0  0  0  0  0  0  0  0  0  0  0
    1.2593   -0.2666   -3.0613 H   0  0  0  0  0  0  0  0  0  0  0  0
   -0.8078   -1.0903   -1.8648 H   0  0  0  0  0  0  0  0  0  0  0  0
   -0.1816    0.6427   -1.5854 H   0  0  0  0  0  0  0  0  0  0  0  0
    3.1504    1.1567   -2.7310 H   0  0  0  0  0  0  0  0  0  0  0  0
    3.7938   -0.5252   -2.9845 H   0  0  0  0  0  0  0  0  0  0  0  0
    5.5450   -1.4139   -1.7526 H   0  0  0  0  0  0  0  0  0  0  0  0
    7.6219   -1.0248   -0.5203 H   0  0  0  0  0  0  0  0  0  0  0  0
    8.0139    1.2219    0.4933 H   0  0  0  0  0  0  0  0  0  0  0  0
    6.3225    2.9949    0.2411 H   0  0  0  0  0  0  0  0  0  0  0  0
    4.2308    2.5897   -1.0044 H   0  0  0  0  0  0  0  0  0  0  0  0
   -0.4441   -3.0861   -0.3552 H   0  0  0  0  0  0  0  0  0  0  0  0
   -1.5136   -4.0110    0.8545 H   0  0  0  0  0  0  0  0  0  0  0  0
   -1.5966   -4.2895   -0.8774 H   0  0  0  0  0  0  0  0  0  0  0  0
   -4.3131   -4.9383   -0.4853 H   0  0  0  0  0  0  0  0  0  0  0  0
   -5.0330   -4.0945   -1.9251 H   0  0  0  0  0  0  0  0  0  0  0  0
   -3.3074   -4.5106   -1.9804 H   0  0  0  0  0  0  0  0  0  0  0  0
   -4.1263    1.2588    1.1110 H   0  0  0  0  0  0  0  0  0  0  0  0
   -3.1288    4.5195   -2.1876 H   0  0  0  0  0  0  0  0  0  0  0  0
   -3.8570    6.6760   -0.7906 H   0  0  0  0  0  0  0  0  0  0  0  0
   -4.7022    5.8479    1.5736 H   0  0  0  0  0  0  0  0  0  0  0  0
  1  2  1  0
  2  3  1  0
  3  4  2  0
  4  5  1  0
  5  6  2  0
  6  7  1  0
  3  8  1  0
  2  9  1  0
  9 10  1  0
 10 11  1  0
 11 12  1  0
 12 13  1  0
 13 14  1  0
 12 15  1  0
 15 16  1  0
 16 17  2  0
 17 18  1  0
 18 19  2  0
 19 20  1  0
 20 21  2  0
  1 22  1  0
 22 23  1  0
 22 24  2  0
 24 25  1  0
 24 26  1  0
 26 27  1  0
 27 28  1  0
 28 29  1  0
 29 30  2  0
 29 31  1  0
 31 32  2  0
 32 33  1  0
 33 34  2  0
 34 35  1  0
 27  1  2  0
  8  7  2  0
 14  9  1  0
 21 16  1  0
 35 31  1  0
  2 36  1  0
  4 37  1  0
  5 38  1  0
  6 39  1  0
  8 40  1  0
 10 41  1  0
 10 42  1  0
 11 43  1  0
 11 44  1  0
 12 45  1  0
 13 46  1  0
 13 47  1  0
 14 48  1  0
 14 49  1  0
 15 50  1  0
 15 51  1  0
 17 52  1  0
 18 53  1  0
 19 54  1  0
 20 55  1  0
 21 56  1  0
 23 57  1  0
 23 58  1  0
 23 59  1  0
 25 60  1  0
 25 61  1  0
 25 62  1  0
 28 63  1  0
 32 64  1  0
 33 65  1  0
 34 66  1  0
M  END
>  <Batch_No>  (382) 
OSSK_262196

>  <EC50_nM>  (382) 
1020

>  <Set>  (382) 
Probe-like

>  <Molecular_Weight>  (382) 
485.64034

>  <ALogP>  (382) 
5.62

$$$$
MMV007041
     RDKit          3D

 45 48  0  0  0  0  0  0  0  0999 V2000
    7.1336    0.5943    0.6591 C   0  0  0  0  0  0  0  0  0  0  0  0
    5.7137    0.7499    0.2462 C   0  0  0  0  0  0  0  0  0  0  0  0
    5.3067    1.6225   -0.7424 C   0  0  0  0  0  0  0  0  0  0  0  0
    3.9585    1.7083   -1.0693 C   0  0  0  0  0  0  0  0  0  0  0  0
    3.0161    0.9514   -0.4391 C   0  0  0  0  0  0  0  0  0  0  0  0
    1.6663    0.9856   -0.7123 C   0  0  0  0  0  0  0  0  0  0  0  0
    1.2151    1.9211   -1.7727 C   0  0  0  0  0  0  0  0  0  0  0  0
    0.8156    0.1880   -0.0240 N   0  0  0  0  0  0  0  0  0  0  0  0
    1.2369   -0.6542    0.9350 C   0  0  0  0  0  0  0  0  0  0  0  0
    0.3650   -1.5019    1.6709 N   0  0  0  0  0  0  0  0  0  0  0  0
   -1.0401   -1.5523    1.4729 C   0  0  0  0  0  0  0  0  0  0  0  0
   -1.8178   -2.3912    2.2182 N   0  0  0  0  0  0  0  0  0  0  0  0
   -3.1484   -2.4733    2.0653 C   0  0  0  0  0  0  0  0  0  0  0  0
   -3.9321   -3.4101    2.9130 C   0  0  0  0  0  0  0  0  0  0  0  0
   -3.7871   -1.7040    1.1383 C   0  0  0  0  0  0  0  0  0  0  0  0
   -3.0264   -0.8491    0.3729 C   0  0  0  0  0  0  0  0  0  0  0  0
   -1.6902   -0.8038    0.5658 N   0  0  0  0  0  0  0  0  0  0  0  0
   -3.6312    0.0046   -0.6389 C   0  0  0  0  0  0  0  0  0  0  0  0
   -4.9797    0.0328   -0.9108 C   0  0  0  0  0  0  0  0  0  0  0  0
   -5.5196    0.8665   -1.8908 C   0  0  0  0  0  0  0  0  0  0  0  0
   -4.7049    1.7031   -2.6306 C   0  0  0  0  0  0  0  0  0  0  0  0
   -3.3501    1.6858   -2.3691 C   0  0  0  0  0  0  0  0  0  0  0  0
   -2.8330    0.8523   -1.3934 C   0  0  0  0  0  0  0  0  0  0  0  0
    2.5523   -0.6923    1.2066 N   0  0  0  0  0  0  0  0  0  0  0  0
    3.4293    0.0812    0.5480 C   0  0  0  0  0  0  0  0  0  0  0  0
    4.7798   -0.0286    0.9005 C   0  0  0  0  0  0  0  0  0  0  0  0
    7.3551    1.1656    1.6050 H   0  0  0  0  0  0  0  0  0  0  0  0
    7.8306    1.0282   -0.0892 H   0  0  0  0  0  0  0  0  0  0  0  0
    7.4020   -0.4737    0.8058 H   0  0  0  0  0  0  0  0  0  0  0  0
    6.0631    2.2293   -1.2474 H   0  0  0  0  0  0  0  0  0  0  0  0
    3.6645    2.3891   -1.8372 H   0  0  0  0  0  0  0  0  0  0  0  0
    0.1414    2.1379   -1.7128 H   0  0  0  0  0  0  0  0  0  0  0  0
    1.7138    2.9256   -1.6326 H   0  0  0  0  0  0  0  0  0  0  0  0
    1.5427    1.5428   -2.7633 H   0  0  0  0  0  0  0  0  0  0  0  0
    0.7622   -2.1298    2.4023 H   0  0  0  0  0  0  0  0  0  0  0  0
   -4.5212   -4.1165    2.2679 H   0  0  0  0  0  0  0  0  0  0  0  0
   -3.2729   -3.9925    3.5580 H   0  0  0  0  0  0  0  0  0  0  0  0
   -4.6922   -2.8889    3.5445 H   0  0  0  0  0  0  0  0  0  0  0  0
   -4.8456   -1.7933    1.0420 H   0  0  0  0  0  0  0  0  0  0  0  0
   -5.6621   -0.5999   -0.3632 H   0  0  0  0  0  0  0  0  0  0  0  0
   -6.6053    0.8396   -2.0572 H   0  0  0  0  0  0  0  0  0  0  0  0
   -5.1644    2.3276   -3.3745 H   0  0  0  0  0  0  0  0  0  0  0  0
   -2.7234    2.3478   -2.9577 H   0  0  0  0  0  0  0  0  0  0  0  0
   -1.7838    0.8308   -1.1830 H   0  0  0  0  0  0  0  0  0  0  0  0
    5.0675   -0.7155    1.6730 H   0  0  0  0  0  0  0  0  0  0  0  0
  1  2  1  0
  2  3  2  0
  3  4  1  0
  4  5  2  0
  5  6  1  0
  6  7  1  0
  6  8  2  0
  8  9  1  0
  9 10  1  0
 10 11  1  0
 11 12  2  0
 12 13  1  0
 13 14  1  0
 13 15  2  0
 15 16  1  0
 16 17  2  0
 16 18  1  0
 18 19  2  0
 19 20  1  0
 20 21  2  0
 21 22  1  0
 22 23  2  0
  9 24  2  0
 24 25  1  0
 25 26  2  0
 26  2  1  0
 25  5  1  0
 17 11  1  0
 23 18  1  0
  1 27  1  0
  1 28  1  0
  1 29  1  0
  3 30  1  0
  4 31  1  0
  7 32  1  0
  7 33  1  0
  7 34  1  0
 10 35  1  0
 14 36  1  0
 14 37  1  0
 14 38  1  0
 15 39  1  0
 19 40  1  0
 20 41  1  0
 21 42  1  0
 22 43  1  0
 23 44  1  0
 26 45  1  0
M  END
>  <Batch_No>  (383) 
STK070253

>  <EC50_nM>  (383) 
4000

>  <Set>  (383) 
Probe-like

>  <Molecular_Weight>  (383) 
341.40906

>  <ALogP>  (383) 
4.562

$$$$
MMV000340
     RDKit          3D

 36 38  0  0  0  0  0  0  0  0999 V2000
   -0.1710    3.1335    0.7446 C   0  0  0  0  0  0  0  0  0  0  0  0
   -0.0346    2.2769   -0.4908 C   0  0  0  0  0  0  0  0  0  0  0  0
   -0.1489    0.8822   -0.2283 N   0  0  0  0  0  0  0  0  0  0  0  0
   -1.3672    0.2786   -0.2779 C   0  0  0  0  0  0  0  0  0  0  0  0
   -1.5320   -1.0688   -0.0313 C   0  0  0  0  0  0  0  0  0  0  0  0
   -2.9620   -1.4552   -0.1539 C   0  0  0  0  0  0  0  0  0  0  0  0
   -3.6692   -0.1541    0.1192 C   0  0  0  0  0  0  0  0  0  0  0  0
   -2.7324    0.8313   -0.5792 C   0  0  0  0  0  0  0  0  0  0  0  0
   -0.4164   -1.8204    0.2749 C   0  0  0  0  0  0  0  0  0  0  0  0
   -0.5260   -3.0727    0.5102 N   0  0  0  0  0  0  0  0  0  0  0  0
    0.8060   -1.1931    0.3203 C   0  0  0  0  0  0  0  0  0  0  0  0
    0.9553    0.1735    0.0678 C   0  0  0  0  0  0  0  0  0  0  0  0
    2.3102    0.7217    0.1486 C   0  0  0  0  0  0  0  0  0  0  0  0
    3.2964   -0.1498   -0.5999 C   0  0  0  0  0  0  0  0  0  0  0  0
    3.0698   -1.6115   -0.4054 C   0  0  0  0  0  0  0  0  0  0  0  0
    2.0535   -1.9454    0.6453 C   0  0  0  0  0  0  0  0  0  0  0  0
    0.8225    3.6044    0.9926 H   0  0  0  0  0  0  0  0  0  0  0  0
   -0.8885    3.9706    0.6369 H   0  0  0  0  0  0  0  0  0  0  0  0
   -0.4740    2.5623    1.6427 H   0  0  0  0  0  0  0  0  0  0  0  0
    0.8296    2.6101   -1.0639 H   0  0  0  0  0  0  0  0  0  0  0  0
   -0.9169    2.5760   -1.1340 H   0  0  0  0  0  0  0  0  0  0  0  0
   -3.1187   -1.8440   -1.1715 H   0  0  0  0  0  0  0  0  0  0  0  0
   -3.2337   -2.2303    0.6146 H   0  0  0  0  0  0  0  0  0  0  0  0
   -4.6920   -0.1069   -0.3076 H   0  0  0  0  0  0  0  0  0  0  0  0
   -3.6701    0.0048    1.1977 H   0  0  0  0  0  0  0  0  0  0  0  0
   -2.8353    1.8188   -0.0692 H   0  0  0  0  0  0  0  0  0  0  0  0
   -2.9412    0.8622   -1.6623 H   0  0  0  0  0  0  0  0  0  0  0  0
   -1.4601   -3.5096    0.4670 H   0  0  0  0  0  0  0  0  0  0  0  0
    2.6314    0.7585    1.2225 H   0  0  0  0  0  0  0  0  0  0  0  0
    2.4632    1.7233   -0.2452 H   0  0  0  0  0  0  0  0  0  0  0  0
    3.2633    0.1348   -1.6721 H   0  0  0  0  0  0  0  0  0  0  0  0
    4.3051    0.1385   -0.2365 H   0  0  0  0  0  0  0  0  0  0  0  0
    4.0386   -2.1176   -0.1599 H   0  0  0  0  0  0  0  0  0  0  0  0
    2.7286   -2.0518   -1.3649 H   0  0  0  0  0  0  0  0  0  0  0  0
    2.4038   -1.7105    1.6736 H   0  0  0  0  0  0  0  0  0  0  0  0
    1.8126   -3.0202    0.5754 H   0  0  0  0  0  0  0  0  0  0  0  0
  1  2  1  0
  2  3  1  0
  3  4  1  0
  4  5  2  0
  5  6  1  0
  6  7  1  0
  7  8  1  0
  5  9  1  0
  9 10  2  3
  9 11  1  0
 11 12  2  0
 12 13  1  0
 13 14  1  0
 14 15  1  0
 15 16  1  0
 12  3  1  0
  8  4  1  0
 16 11  1  0
  1 17  1  0
  1 18  1  0
  1 19  1  0
  2 20  1  0
  2 21  1  0
  6 22  1  0
  6 23  1  0
  7 24  1  0
  7 25  1  0
  8 26  1  0
  8 27  1  0
 10 28  1  0
 13 29  1  0
 13 30  1  0
 14 31  1  0
 14 32  1  0
 15 33  1  0
 15 34  1  0
 16 35  1  0
 16 36  1  0
M  END
>  <Batch_No>  (384) 
STK054125

>  <EC50_nM>  (384) 
694.5

>  <Set>  (384) 
Probe-like

>  <Molecular_Weight>  (384) 
216.322

>  <ALogP>  (384) 
2.969

$$$$
MMV666687
     RDKit          3D

 51 53  0  0  0  0  0  0  0  0999 V2000
   -4.2061    3.7495   -0.9042 C   0  0  0  0  0  0  0  0  0  0  0  0
   -4.7875    2.5922   -0.3388 O   0  0  0  0  0  0  0  0  0  0  0  0
   -4.0854    1.4007   -0.4055 C   0  0  0  0  0  0  0  0  0  0  0  0
   -2.8429    1.2835   -0.9976 C   0  0  0  0  0  0  0  0  0  0  0  0
   -2.1927    0.0668   -1.0323 C   0  0  0  0  0  0  0  0  0  0  0  0
   -2.8142   -1.0310   -0.4608 C   0  0  0  0  0  0  0  0  0  0  0  0
   -4.0620   -0.9344    0.1389 C   0  0  0  0  0  0  0  0  0  0  0  0
   -4.6607   -2.0534    0.7041 O   0  0  0  0  0  0  0  0  0  0  0  0
   -3.9609   -3.2902    0.6494 C   0  0  0  0  0  0  0  0  0  0  0  0
   -4.6935    0.2913    0.1621 C   0  0  0  0  0  0  0  0  0  0  0  0
   -5.9557    0.3746    0.7722 O   0  0  0  0  0  0  0  0  0  0  0  0
   -5.9681    0.6752    2.1562 C   0  0  0  0  0  0  0  0  0  0  0  0
   -0.8623   -0.0612   -1.6649 C   0  0  0  0  0  0  0  0  0  0  0  0
   -0.3504    0.9606   -2.1645 O   0  0  0  0  0  0  0  0  0  0  0  0
   -0.2632   -1.3125   -1.6639 O   0  0  0  0  0  0  0  0  0  0  0  0
    0.9552   -1.6064   -2.2004 N   0  0  0  0  0  0  0  0  0  0  0  0
    2.0504   -1.5939   -1.4720 C   0  0  0  0  0  0  0  0  0  0  0  0
    3.2383   -1.9206   -2.1707 N   0  0  0  0  0  0  0  0  0  0  0  0
    1.9494   -1.2565   -0.0513 C   0  0  0  0  0  0  0  0  0  0  0  0
    2.7746   -0.1271    0.3941 C   0  0  0  0  0  0  0  0  0  0  0  0
    2.1982    1.1442    0.5084 C   0  0  0  0  0  0  0  0  0  0  0  0
    2.9187    2.2475    0.8844 C   0  0  0  0  0  0  0  0  0  0  0  0
    4.2661    2.1039    1.1625 C   0  0  0  0  0  0  0  0  0  0  0  0
    4.8787    0.8846    1.0673 C   0  0  0  0  0  0  0  0  0  0  0  0
    6.2212    0.7692    1.3606 C   0  0  0  0  0  0  0  0  0  0  0  0
    6.8450   -0.4576    1.2789 C   0  0  0  0  0  0  0  0  0  0  0  0
    6.1012   -1.5576    0.9004 C   0  0  0  0  0  0  0  0  0  0  0  0
    4.7514   -1.4157    0.6100 C   0  0  0  0  0  0  0  0  0  0  0  0
    4.1169   -0.1960    0.6866 C   0  0  0  0  0  0  0  0  0  0  0  0
   -3.8703    3.5091   -1.9476 H   0  0  0  0  0  0  0  0  0  0  0  0
   -4.9744    4.5490   -0.9305 H   0  0  0  0  0  0  0  0  0  0  0  0
   -3.3434    4.1128   -0.3026 H   0  0  0  0  0  0  0  0  0  0  0  0
   -2.3890    2.1719   -1.4356 H   0  0  0  0  0  0  0  0  0  0  0  0
   -2.3361   -2.0155   -0.4650 H   0  0  0  0  0  0  0  0  0  0  0  0
   -2.9709   -3.1848    1.1329 H   0  0  0  0  0  0  0  0  0  0  0  0
   -4.5529   -4.1034    1.0790 H   0  0  0  0  0  0  0  0  0  0  0  0
   -3.7257   -3.5742   -0.4184 H   0  0  0  0  0  0  0  0  0  0  0  0
   -6.8865    1.1903    2.4918 H   0  0  0  0  0  0  0  0  0  0  0  0
   -5.1250    1.3735    2.3673 H   0  0  0  0  0  0  0  0  0  0  0  0
   -5.9051   -0.2674    2.7688 H   0  0  0  0  0  0  0  0  0  0  0  0
    3.7192   -2.8404   -2.1275 H   0  0  0  0  0  0  0  0  0  0  0  0
    3.6788   -1.1917   -2.7816 H   0  0  0  0  0  0  0  0  0  0  0  0
    0.8899   -1.0041    0.1929 H   0  0  0  0  0  0  0  0  0  0  0  0
    2.1461   -2.1678    0.5933 H   0  0  0  0  0  0  0  0  0  0  0  0
    1.1398    1.3057    0.2995 H   0  0  0  0  0  0  0  0  0  0  0  0
    2.5066    3.2417    0.9825 H   0  0  0  0  0  0  0  0  0  0  0  0
    4.8783    2.9487    1.4638 H   0  0  0  0  0  0  0  0  0  0  0  0
    6.8372    1.6189    1.6630 H   0  0  0  0  0  0  0  0  0  0  0  0
    7.9137   -0.5610    1.5099 H   0  0  0  0  0  0  0  0  0  0  0  0
    6.5824   -2.5324    0.8325 H   0  0  0  0  0  0  0  0  0  0  0  0
    4.2278   -2.3084    0.3350 H   0  0  0  0  0  0  0  0  0  0  0  0
  1  2  1  0
  2  3  1  0
  3  4  2  0
  4  5  1  0
  5  6  2  0
  6  7  1  0
  7  8  1  0
  8  9  1  0
  7 10  2  0
 10 11  1  0
 11 12  1  0
  5 13  1  0
 13 14  2  0
 13 15  1  0
 15 16  1  0
 16 17  2  3
 17 18  1  0
 17 19  1  0
 19 20  1  0
 20 21  2  0
 21 22  1  0
 22 23  2  0
 23 24  1  0
 24 25  2  0
 25 26  1  0
 26 27  2  0
 27 28  1  0
 28 29  2  0
 10  3  1  0
 29 20  1  0
 29 24  1  0
  1 30  1  0
  1 31  1  0
  1 32  1  0
  4 33  1  0
  6 34  1  0
  9 35  1  0
  9 36  1  0
  9 37  1  0
 12 38  1  0
 12 39  1  0
 12 40  1  0
 18 41  1  0
 18 42  1  0
 19 43  1  0
 19 44  1  0
 21 45  1  0
 22 46  1  0
 23 47  1  0
 25 48  1  0
 26 49  1  0
 27 50  1  0
 28 51  1  0
M  END
>  <Batch_No>  (385) 
STK323540

>  <EC50_nM>  (385) 
782

>  <Set>  (385) 
Probe-like

>  <Molecular_Weight>  (385) 
394.42048

>  <ALogP>  (385) 
3.28

$$$$
MMV645672
     RDKit          3D

 40 44  0  0  0  0  0  0  0  0999 V2000
    0.1515   -0.3023    0.2455 C   0  0  0  0  0  0  0  0  0  0  0  0
   -1.1137   -0.5219    0.0231 C   0  0  0  0  0  0  0  0  0  0  0  0
   -1.4368   -1.9537    0.1949 C   0  0  0  0  0  0  0  0  0  0  0  0
   -0.2869   -2.6392    0.5442 C   0  0  0  0  0  0  0  0  0  0  0  0
   -0.2963   -4.0076    0.7698 C   0  0  0  0  0  0  0  0  0  0  0  0
   -1.4620   -4.7305    0.6514 C   0  0  0  0  0  0  0  0  0  0  0  0
   -2.6121   -4.0524    0.3033 C   0  0  0  0  0  0  0  0  0  0  0  0
   -2.6021   -2.6903    0.0789 C   0  0  0  0  0  0  0  0  0  0  0  0
    0.7577   -1.6097    0.5869 C   0  0  0  0  0  0  0  0  0  0  0  0
    1.9415   -1.8636    0.8714 O   0  0  0  0  0  0  0  0  0  0  0  0
   -2.1491    0.3782   -0.3378 N   0  0  0  0  0  0  0  0  0  0  0  0
   -2.1374    1.7780   -0.5867 C   0  0  0  0  0  0  0  0  0  0  0  0
   -1.0649    2.5785   -0.9182 C   0  0  0  0  0  0  0  0  0  0  0  0
   -1.2560    3.9313   -1.1233 C   0  0  0  0  0  0  0  0  0  0  0  0
   -2.5122    4.4912   -0.9995 C   0  0  0  0  0  0  0  0  0  0  0  0
   -3.5906    3.6723   -0.6636 C   0  0  0  0  0  0  0  0  0  0  0  0
   -3.4166    2.3214   -0.4559 C   0  0  0  0  0  0  0  0  0  0  0  0
    0.6312    2.0499   -1.1252 S   0  0  0  0  0  0  0  0  0  0  0  0
    0.9648    0.9078    0.2109 C   0  0  0  0  0  0  0  0  0  0  0  0
    2.4303    0.5718    0.1155 C   0  0  0  0  0  0  0  0  0  0  0  0
    3.3162    0.9030    1.1227 C   0  0  0  0  0  0  0  0  0  0  0  0
    4.6665    0.5670    0.9809 C   0  0  0  0  0  0  0  0  0  0  0  0
    5.0671   -0.0934   -0.1795 C   0  0  0  0  0  0  0  0  0  0  0  0
    4.1740   -0.4183   -1.1769 C   0  0  0  0  0  0  0  0  0  0  0  0
    2.8419   -0.0896   -1.0424 C   0  0  0  0  0  0  0  0  0  0  0  0
    0.6511   -4.4567    1.0383 H   0  0  0  0  0  0  0  0  0  0  0  0
   -1.4432   -5.7930    0.8318 H   0  0  0  0  0  0  0  0  0  0  0  0
   -3.5441   -4.6226    0.2073 H   0  0  0  0  0  0  0  0  0  0  0  0
   -3.5419   -2.1973   -0.1953 H   0  0  0  0  0  0  0  0  0  0  0  0
   -3.1205   -0.0365   -0.4503 H   0  0  0  0  0  0  0  0  0  0  0  0
   -0.4004    4.5571   -1.3855 H   0  0  0  0  0  0  0  0  0  0  0  0
   -2.6462    5.5661   -1.1655 H   0  0  0  0  0  0  0  0  0  0  0  0
   -4.5659    4.0870   -0.5639 H   0  0  0  0  0  0  0  0  0  0  0  0
   -4.2504    1.6866   -0.1959 H   0  0  0  0  0  0  0  0  0  0  0  0
    0.8355    1.4370    1.1940 H   0  0  0  0  0  0  0  0  0  0  0  0
    2.9601    1.4191    2.0126 H   0  0  0  0  0  0  0  0  0  0  0  0
    5.3855    0.8005    1.7279 H   0  0  0  0  0  0  0  0  0  0  0  0
    6.1030   -0.3633   -0.3125 H   0  0  0  0  0  0  0  0  0  0  0  0
    4.4598   -0.9308   -2.0871 H   0  0  0  0  0  0  0  0  0  0  0  0
    2.1117   -0.3310   -1.8094 H   0  0  0  0  0  0  0  0  0  0  0  0
  1  2  2  0
  2  3  1  0
  3  4  1  0
  4  5  2  0
  5  6  1  0
  6  7  2  0
  7  8  1  0
  4  9  1  0
  9 10  2  0
  2 11  1  0
 11 12  1  0
 12 13  2  0
 13 14  1  0
 14 15  2  0
 15 16  1  0
 16 17  2  0
 13 18  1  0
 18 19  1  0
 19 20  1  0
 20 21  2  0
 21 22  1  0
 22 23  2  0
 23 24  1  0
 24 25  2  0
  9  1  1  0
 19  1  1  0
  8  3  2  0
 17 12  1  0
 25 20  1  0
  5 26  1  0
  6 27  1  0
  7 28  1  0
  8 29  1  0
 11 30  1  0
 14 31  1  0
 15 32  1  0
 16 33  1  0
 17 34  1  0
 19 35  1  0
 21 36  1  0
 22 37  1  0
 23 38  1  0
 24 39  1  0
 25 40  1  0
M  END
>  <Batch_No>  (386) 
STL024548

>  <EC50_nM>  (386) 
890

>  <Set>  (386) 
Probe-like

>  <Molecular_Weight>  (386) 
341.4256

>  <ALogP>  (386) 
4.829

$$$$
MMV011438
     RDKit          3D

 68 73  0  0  0  0  0  0  0  0999 V2000
   -5.0359    6.1439   -0.3856 C   0  0  0  0  0  0  0  0  0  0  0  0
   -4.2308    5.0513   -0.0067 O   0  0  0  0  0  0  0  0  0  0  0  0
   -3.9140    3.9851   -0.8439 C   0  0  0  0  0  0  0  0  0  0  0  0
   -4.3481    3.9388   -2.0109 O   0  0  0  0  0  0  0  0  0  0  0  0
   -3.0436    2.9347   -0.2720 C   0  0  0  0  0  0  0  0  0  0  0  0
   -2.6289    3.0284    1.0501 C   0  0  0  0  0  0  0  0  0  0  0  0
   -1.7774    2.0794    1.5422 C   0  0  0  0  0  0  0  0  0  0  0  0
   -1.3115    1.0105    0.7387 C   0  0  0  0  0  0  0  0  0  0  0  0
   -1.7391    0.9279   -0.5894 C   0  0  0  0  0  0  0  0  0  0  0  0
   -2.6149    1.8991   -1.1011 C   0  0  0  0  0  0  0  0  0  0  0  0
   -0.3476    0.0205    1.3218 C   0  0  0  0  0  0  0  0  0  0  0  0
   -0.9647   -1.3088    1.2307 N   0  0  0  0  0  0  0  0  0  0  0  0
   -2.3460   -1.3636    0.8929 C   0  0  0  0  0  0  0  0  0  0  0  0
   -3.0796   -0.3454    1.1874 O   0  0  0  0  0  0  0  0  0  0  0  0
   -3.0487   -2.4386    0.2314 C   0  0  0  0  0  0  0  0  0  0  0  0
   -2.4393   -3.0169   -0.8853 C   0  0  0  0  0  0  0  0  0  0  0  0
   -3.0885   -4.0397   -1.5753 C   0  0  0  0  0  0  0  0  0  0  0  0
   -4.3226   -4.5096   -1.1952 C   0  0  0  0  0  0  0  0  0  0  0  0
   -4.9388   -3.9394   -0.0835 C   0  0  0  0  0  0  0  0  0  0  0  0
   -4.2832   -2.9321    0.5837 C   0  0  0  0  0  0  0  0  0  0  0  0
   -0.3167   -2.5596    1.3909 C   0  0  0  0  0  0  0  0  0  0  0  0
   -1.1682   -3.5277    1.9170 C   0  0  0  0  0  0  0  0  0  0  0  0
   -0.7661   -4.8265    2.1467 C   0  0  0  0  0  0  0  0  0  0  0  0
    0.5321   -5.2269    1.8577 C   0  0  0  0  0  0  0  0  0  0  0  0
    1.3884   -4.2905    1.3438 C   0  0  0  0  0  0  0  0  0  0  0  0
    0.9618   -2.9876    1.1206 C   0  0  0  0  0  0  0  0  0  0  0  0
    2.0224   -2.1840    0.6981 N   0  0  0  0  0  0  0  0  0  0  0  0
    2.0424   -0.9044    0.4653 C   0  0  0  0  0  0  0  0  0  0  0  0
    3.4215   -0.5776    0.0492 C   0  0  0  0  0  0  0  0  0  0  0  0
    3.4970    0.6079   -0.8263 C   0  0  0  0  0  0  0  0  0  0  0  0
    2.4251    1.5976   -0.7703 C   0  0  0  0  0  0  0  0  0  0  0  0
    1.2103    1.2610    0.0198 C   0  0  0  0  0  0  0  0  0  0  0  0
    0.9591    0.1003    0.5948 C   0  0  0  0  0  0  0  0  0  0  0  0
    0.3127    2.3539    0.1043 O   0  0  0  0  0  0  0  0  0  0  0  0
    4.8811    1.1986   -0.5802 C   0  0  0  0  0  0  0  0  0  0  0  0
    5.9511    0.5265   -1.1499 C   0  0  0  0  0  0  0  0  0  0  0  0
    7.2556    1.0072   -0.9648 C   0  0  0  0  0  0  0  0  0  0  0  0
    7.4436    2.1494   -0.2133 C   0  0  0  0  0  0  0  0  0  0  0  0
    8.7020    2.6112   -0.0332 F   0  0  0  0  0  0  0  0  0  0  0  0
    6.3659    2.8033    0.3446 C   0  0  0  0  0  0  0  0  0  0  0  0
    5.0647    2.3263    0.1621 C   0  0  0  0  0  0  0  0  0  0  0  0
   -4.4615    6.7089   -1.1608 H   0  0  0  0  0  0  0  0  0  0  0  0
   -5.1429    6.8421    0.4760 H   0  0  0  0  0  0  0  0  0  0  0  0
   -6.0318    5.8727   -0.7587 H   0  0  0  0  0  0  0  0  0  0  0  0
   -2.9627    3.8404    1.6975 H   0  0  0  0  0  0  0  0  0  0  0  0
   -1.4422    2.1459    2.5826 H   0  0  0  0  0  0  0  0  0  0  0  0
   -1.3946    0.1108   -1.2150 H   0  0  0  0  0  0  0  0  0  0  0  0
   -2.9341    1.8155   -2.1228 H   0  0  0  0  0  0  0  0  0  0  0  0
   -0.1649    0.3157    2.3621 H   0  0  0  0  0  0  0  0  0  0  0  0
   -1.4734   -2.6943   -1.2362 H   0  0  0  0  0  0  0  0  0  0  0  0
   -2.6001   -4.4815   -2.4535 H   0  0  0  0  0  0  0  0  0  0  0  0
   -4.8096   -5.2921   -1.7347 H   0  0  0  0  0  0  0  0  0  0  0  0
   -5.9230   -4.3038    0.2315 H   0  0  0  0  0  0  0  0  0  0  0  0
   -4.7519   -2.4782    1.4586 H   0  0  0  0  0  0  0  0  0  0  0  0
   -2.1539   -3.2264    2.1922 H   0  0  0  0  0  0  0  0  0  0  0  0
   -1.4183   -5.5758    2.5490 H   0  0  0  0  0  0  0  0  0  0  0  0
    0.8956   -6.2249    2.0198 H   0  0  0  0  0  0  0  0  0  0  0  0
    2.4198   -4.5264    1.0952 H   0  0  0  0  0  0  0  0  0  0  0  0
    3.8346   -1.4745   -0.4944 H   0  0  0  0  0  0  0  0  0  0  0  0
    4.0894   -0.4531    0.9533 H   0  0  0  0  0  0  0  0  0  0  0  0
    3.6370    0.1826   -1.8874 H   0  0  0  0  0  0  0  0  0  0  0  0
    2.0149    1.7094   -1.8377 H   0  0  0  0  0  0  0  0  0  0  0  0
    2.7326    2.6585   -0.5457 H   0  0  0  0  0  0  0  0  0  0  0  0
    0.6537    3.2529    0.4194 H   0  0  0  0  0  0  0  0  0  0  0  0
    5.7820   -0.3737   -1.7394 H   0  0  0  0  0  0  0  0  0  0  0  0
    8.0930    0.4754   -1.4106 H   0  0  0  0  0  0  0  0  0  0  0  0
    6.5488    3.6961    0.9249 H   0  0  0  0  0  0  0  0  0  0  0  0
    4.2808    2.8941    0.6334 H   0  0  0  0  0  0  0  0  0  0  0  0
  1  2  1  0
  2  3  1  0
  3  4  2  0
  3  5  1  0
  5  6  2  0
  6  7  1  0
  7  8  2  0
  8  9  1  0
  9 10  2  0
  8 11  1  0
 11 12  1  0
 12 13  1  0
 13 14  2  0
 13 15  1  0
 15 16  2  0
 16 17  1  0
 17 18  2  0
 18 19  1  0
 19 20  2  0
 12 21  1  0
 21 22  2  0
 22 23  1  0
 23 24  2  0
 24 25  1  0
 25 26  2  0
 26 27  1  0
 27 28  2  0
 28 29  1  0
 29 30  1  0
 30 31  1  0
 31 32  1  0
 32 33  2  0
 32 34  1  0
 30 35  1  0
 35 36  2  0
 36 37  1  0
 37 38  2  0
 38 39  1  0
 38 40  1  0
 40 41  2  0
 10  5  1  0
 33 11  1  0
 20 15  1  0
 26 21  1  0
 33 28  1  0
 41 35  1  0
  1 42  1  0
  1 43  1  0
  1 44  1  0
  6 45  1  0
  7 46  1  0
  9 47  1  0
 10 48  1  0
 11 49  1  0
 16 50  1  0
 17 51  1  0
 18 52  1  0
 19 53  1  0
 20 54  1  0
 22 55  1  0
 23 56  1  0
 24 57  1  0
 25 58  1  0
 29 59  1  0
 29 60  1  0
 30 61  1  0
 31 62  1  0
 31 63  1  0
 34 64  1  0
 36 65  1  0
 37 66  1  0
 40 67  1  0
 41 68  1  0
M  END
>  <Batch_No>  (387) 
STK039514

>  <EC50_nM>  (387) 
326.5

>  <Set>  (387) 
Probe-like

>  <Molecular_Weight>  (387) 
546.58758

>  <ALogP>  (387) 
6.116

$$$$
MMV665840
     RDKit          3D

 39 42  0  0  0  0  0  0  0  0999 V2000
   -9.3577   -0.9280    0.4628 Cl  0  0  0  0  0  0  0  0  0  0  0  0
   -7.6110   -0.8560    0.2466 C   0  0  0  0  0  0  0  0  0  0  0  0
   -6.9651   -1.5263   -0.7506 C   0  0  0  0  0  0  0  0  0  0  0  0
   -5.5745   -1.4317   -0.8736 C   0  0  0  0  0  0  0  0  0  0  0  0
   -4.8476   -0.6616    0.0104 C   0  0  0  0  0  0  0  0  0  0  0  0
   -5.5072    0.0136    1.0163 C   0  0  0  0  0  0  0  0  0  0  0  0
   -6.8859   -0.0806    1.1378 C   0  0  0  0  0  0  0  0  0  0  0  0
   -7.6887    0.7996    2.4391 Cl  0  0  0  0  0  0  0  0  0  0  0  0
   -3.4005   -0.6058   -0.1739 C   0  0  0  0  0  0  0  0  0  0  0  0
   -2.9159   -1.2663   -1.1292 O   0  0  0  0  0  0  0  0  0  0  0  0
   -2.5376    0.1496    0.6663 N   0  0  0  0  0  0  0  0  0  0  0  0
   -1.1293    0.2073    0.4916 C   0  0  0  0  0  0  0  0  0  0  0  0
   -0.6066    1.2041   -0.3270 C   0  0  0  0  0  0  0  0  0  0  0  0
    0.7577    1.2888   -0.5184 C   0  0  0  0  0  0  0  0  0  0  0  0
    1.5852    0.3644    0.1194 C   0  0  0  0  0  0  0  0  0  0  0  0
    1.0485   -0.6047    0.9179 C   0  0  0  0  0  0  0  0  0  0  0  0
   -0.3210   -0.7157    1.1301 C   0  0  0  0  0  0  0  0  0  0  0  0
    3.0470    0.4153   -0.0549 C   0  0  0  0  0  0  0  0  0  0  0  0
    3.7183    1.3050   -0.8046 N   0  0  0  0  0  0  0  0  0  0  0  0
    5.0341    1.0779   -0.7506 C   0  0  0  0  0  0  0  0  0  0  0  0
    6.1159    1.7057   -1.3357 C   0  0  0  0  0  0  0  0  0  0  0  0
    7.3854    1.2119   -1.0713 C   0  0  0  0  0  0  0  0  0  0  0  0
    7.5680    0.1147   -0.2402 C   0  0  0  0  0  0  0  0  0  0  0  0
    6.4787   -0.5130    0.3455 C   0  0  0  0  0  0  0  0  0  0  0  0
    5.1962   -0.0204    0.0833 C   0  0  0  0  0  0  0  0  0  0  0  0
    3.9649   -0.3994    0.4899 N   0  0  0  0  0  0  0  0  0  0  0  0
   -7.5408   -2.1379   -1.4529 H   0  0  0  0  0  0  0  0  0  0  0  0
   -5.1301   -1.9898   -1.6873 H   0  0  0  0  0  0  0  0  0  0  0  0
   -4.9513    0.6182    1.7130 H   0  0  0  0  0  0  0  0  0  0  0  0
   -2.9319    0.6984    1.4585 H   0  0  0  0  0  0  0  0  0  0  0  0
   -1.2609    1.9291   -0.8268 H   0  0  0  0  0  0  0  0  0  0  0  0
    1.1727    2.0540   -1.1481 H   0  0  0  0  0  0  0  0  0  0  0  0
    1.6649   -1.3385    1.4280 H   0  0  0  0  0  0  0  0  0  0  0  0
   -0.7465   -1.4869    1.7654 H   0  0  0  0  0  0  0  0  0  0  0  0
    6.0115    2.5640   -1.9893 H   0  0  0  0  0  0  0  0  0  0  0  0
    8.2730    1.6707   -1.5078 H   0  0  0  0  0  0  0  0  0  0  0  0
    8.5680   -0.2506   -0.0502 H   0  0  0  0  0  0  0  0  0  0  0  0
    6.5909   -1.3705    0.9979 H   0  0  0  0  0  0  0  0  0  0  0  0
    3.7290   -1.2084    1.1369 H   0  0  0  0  0  0  0  0  0  0  0  0
  1  2  1  0
  2  3  2  0
  3  4  1  0
  4  5  2  0
  5  6  1  0
  6  7  2  0
  7  8  1  0
  5  9  1  0
  9 10  2  0
  9 11  1  0
 11 12  1  0
 12 13  2  0
 13 14  1  0
 14 15  2  0
 15 16  1  0
 16 17  2  0
 15 18  1  0
 18 19  2  0
 19 20  1  0
 20 21  2  0
 21 22  1  0
 22 23  2  0
 23 24  1  0
 24 25  2  0
 25 26  1  0
  7  2  1  0
 17 12  1  0
 26 18  1  0
 25 20  1  0
  3 27  1  0
  4 28  1  0
  6 29  1  0
 11 30  1  0
 13 31  1  0
 14 32  1  0
 16 33  1  0
 17 34  1  0
 21 35  1  0
 22 36  1  0
 23 37  1  0
 24 38  1  0
 26 39  1  0
M  END
>  <Batch_No>  (388) 
OSSK_368554

>  <EC50_nM>  (388) 
838

>  <Set>  (388) 
Probe-like

>  <Molecular_Weight>  (388) 
382.24272

>  <ALogP>  (388) 
5.384

$$$$
MMV665894
     RDKit          3D

 38 39  0  0  0  0  0  0  0  0999 V2000
    6.8704    1.0406    0.3283 C   0  0  0  0  0  0  0  0  0  0  0  0
    5.5835    1.2507   -0.3792 C   0  0  0  0  0  0  0  0  0  0  0  0
    5.5148    2.3431   -1.0585 O   0  0  0  0  0  0  0  0  0  0  0  0
    4.5084    0.3961   -0.3590 C   0  0  0  0  0  0  0  0  0  0  0  0
    2.9678    0.7844   -1.2901 S   0  0  0  0  0  0  0  0  0  0  0  0
    2.1332   -0.8246   -0.7111 C   0  0  0  0  0  0  0  0  0  0  0  0
    0.7912   -1.0801   -1.1686 N   0  0  0  0  0  0  0  0  0  0  0  0
   -0.3437   -0.6203   -0.4111 C   0  0  0  0  0  0  0  0  0  0  0  0
   -0.1853    0.0155    0.6682 O   0  0  0  0  0  0  0  0  0  0  0  0
   -1.6244   -0.9248   -0.9502 N   0  0  0  0  0  0  0  0  0  0  0  0
   -2.8426   -0.5380   -0.3179 C   0  0  0  0  0  0  0  0  0  0  0  0
   -3.4627   -1.3632    0.5998 C   0  0  0  0  0  0  0  0  0  0  0  0
   -4.6442   -1.0175    1.2303 C   0  0  0  0  0  0  0  0  0  0  0  0
   -5.2480    0.1913    0.9507 C   0  0  0  0  0  0  0  0  0  0  0  0
   -6.5177    0.5499    1.6357 C   0  0  0  0  0  0  0  0  0  0  0  0
   -4.6265    1.0143    0.0333 C   0  0  0  0  0  0  0  0  0  0  0  0
   -3.4475    0.6823   -0.6034 C   0  0  0  0  0  0  0  0  0  0  0  0
   -2.8394    1.6239   -1.5805 C   0  0  0  0  0  0  0  0  0  0  0  0
    3.0004   -1.2675   -0.0533 N   0  0  0  0  0  0  0  0  0  0  0  0
    4.1847   -0.8350    0.2272 C   0  0  0  0  0  0  0  0  0  0  0  0
    5.1782   -1.5461    1.1024 C   0  0  0  0  0  0  0  0  0  0  0  0
    6.6868    1.2503    1.4238 H   0  0  0  0  0  0  0  0  0  0  0  0
    7.1944   -0.0049    0.2055 H   0  0  0  0  0  0  0  0  0  0  0  0
    7.6589    1.7404   -0.0456 H   0  0  0  0  0  0  0  0  0  0  0  0
    0.6865   -1.6065   -2.0616 H   0  0  0  0  0  0  0  0  0  0  0  0
   -1.7195   -1.4567   -1.8524 H   0  0  0  0  0  0  0  0  0  0  0  0
   -2.9637   -2.3184    0.8053 H   0  0  0  0  0  0  0  0  0  0  0  0
   -5.1167   -1.6865    1.9529 H   0  0  0  0  0  0  0  0  0  0  0  0
   -6.7625    1.6107    1.5462 H   0  0  0  0  0  0  0  0  0  0  0  0
   -6.4183    0.1790    2.6753 H   0  0  0  0  0  0  0  0  0  0  0  0
   -7.3675   -0.0358    1.1882 H   0  0  0  0  0  0  0  0  0  0  0  0
   -5.0889    1.9814   -0.2049 H   0  0  0  0  0  0  0  0  0  0  0  0
   -3.6121    2.0524   -2.2560 H   0  0  0  0  0  0  0  0  0  0  0  0
   -2.0239    1.1560   -2.1361 H   0  0  0  0  0  0  0  0  0  0  0  0
   -2.4423    2.4944   -1.0020 H   0  0  0  0  0  0  0  0  0  0  0  0
    5.6637   -0.8635    1.8252 H   0  0  0  0  0  0  0  0  0  0  0  0
    5.9769   -2.0306    0.4908 H   0  0  0  0  0  0  0  0  0  0  0  0
    4.6978   -2.3367    1.7197 H   0  0  0  0  0  0  0  0  0  0  0  0
  1  2  1  0
  2  3  2  0
  2  4  1  0
  4  5  1  0
  5  6  1  0
  6  7  1  0
  7  8  1  0
  8  9  2  0
  8 10  1  0
 10 11  1  0
 11 12  2  0
 12 13  1  0
 13 14  2  0
 14 15  1  0
 14 16  1  0
 16 17  2  0
 17 18  1  0
  6 19  2  0
 19 20  1  0
 20 21  1  0
 20  4  2  0
 17 11  1  0
  1 22  1  0
  1 23  1  0
  1 24  1  0
  7 25  1  0
 10 26  1  0
 12 27  1  0
 13 28  1  0
 15 29  1  0
 15 30  1  0
 15 31  1  0
 16 32  1  0
 18 33  1  0
 18 34  1  0
 18 35  1  0
 21 36  1  0
 21 37  1  0
 21 38  1  0
M  END
>  <Batch_No>  (389) 
OSSK_807336

>  <EC50_nM>  (389) 
536

>  <Set>  (389) 
Probe-like

>  <Molecular_Weight>  (389) 
303.37937

>  <ALogP>  (389) 
2.806

$$$$
MMV011522
     RDKit          3D

 33 35  0  0  0  0  0  0  0  0999 V2000
    5.3782    0.9750    0.8484 C   0  0  0  0  0  0  0  0  0  0  0  0
    4.1474    0.3056    0.2913 C   0  0  0  0  0  0  0  0  0  0  0  0
    4.2494   -0.8262   -0.4852 C   0  0  0  0  0  0  0  0  0  0  0  0
    3.1046   -1.4451   -0.9940 C   0  0  0  0  0  0  0  0  0  0  0  0
    1.8320   -0.9193   -0.7175 C   0  0  0  0  0  0  0  0  0  0  0  0
    0.6480   -1.5487   -1.2142 N   0  0  0  0  0  0  0  0  0  0  0  0
   -0.5935   -0.9878   -0.8009 C   0  0  0  0  0  0  0  0  0  0  0  0
   -0.8946   -1.1652    0.5158 N   0  0  0  0  0  0  0  0  0  0  0  0
   -2.0506   -0.7013    1.0383 C   0  0  0  0  0  0  0  0  0  0  0  0
   -2.2898   -0.9145    2.4165 N   0  0  0  0  0  0  0  0  0  0  0  0
   -2.9457   -0.0311    0.2089 C   0  0  0  0  0  0  0  0  0  0  0  0
   -4.1103    0.4300    0.7294 C   0  0  0  0  0  0  0  0  0  0  0  0
   -5.0203    1.0872   -0.0590 C   0  0  0  0  0  0  0  0  0  0  0  0
   -4.7157    1.2646   -1.3903 C   0  0  0  0  0  0  0  0  0  0  0  0
   -3.5181    0.7995   -1.9484 C   0  0  0  0  0  0  0  0  0  0  0  0
   -2.6113    0.1377   -1.1404 C   0  0  0  0  0  0  0  0  0  0  0  0
   -1.4346   -0.3436   -1.6297 N   0  0  0  0  0  0  0  0  0  0  0  0
    1.7863    0.2144    0.0629 C   0  0  0  0  0  0  0  0  0  0  0  0
    2.9113    0.8291    0.5664 C   0  0  0  0  0  0  0  0  0  0  0  0
    2.7644    2.2832    1.5658 Cl  0  0  0  0  0  0  0  0  0  0  0  0
    5.1382    1.9809    1.2200 H   0  0  0  0  0  0  0  0  0  0  0  0
    5.8242    0.3697    1.6606 H   0  0  0  0  0  0  0  0  0  0  0  0
    6.1602    1.0284    0.0603 H   0  0  0  0  0  0  0  0  0  0  0  0
    5.2465   -1.2495   -0.7052 H   0  0  0  0  0  0  0  0  0  0  0  0
    3.1967   -2.3500   -1.6139 H   0  0  0  0  0  0  0  0  0  0  0  0
    0.7390   -2.3666   -1.8435 H   0  0  0  0  0  0  0  0  0  0  0  0
   -3.2142   -1.2078    2.8215 H   0  0  0  0  0  0  0  0  0  0  0  0
   -1.4767   -0.7589    3.0615 H   0  0  0  0  0  0  0  0  0  0  0  0
   -4.3330    0.2817    1.7679 H   0  0  0  0  0  0  0  0  0  0  0  0
   -5.9344    1.4298    0.4057 H   0  0  0  0  0  0  0  0  0  0  0  0
   -5.4547    1.7853   -1.9867 H   0  0  0  0  0  0  0  0  0  0  0  0
   -3.3360    0.9692   -3.0054 H   0  0  0  0  0  0  0  0  0  0  0  0
    0.8072    0.6446    0.2929 H   0  0  0  0  0  0  0  0  0  0  0  0
  1  2  1  0
  2  3  2  0
  3  4  1  0
  4  5  2  0
  5  6  1  0
  6  7  1  0
  7  8  2  0
  8  9  1  0
  9 10  1  0
  9 11  2  0
 11 12  1  0
 12 13  2  0
 13 14  1  0
 14 15  2  0
 15 16  1  0
 16 17  2  0
  5 18  1  0
 18 19  2  0
 19 20  1  0
 19  2  1  0
 17  7  1  0
 16 11  1  0
  1 21  1  0
  1 22  1  0
  1 23  1  0
  3 24  1  0
  4 25  1  0
  6 26  1  0
 10 27  1  0
 10 28  1  0
 12 29  1  0
 13 30  1  0
 14 31  1  0
 15 32  1  0
 18 33  1  0
M  END
>  <Batch_No>  (390) 
OSSL_322694

>  <EC50_nM>  (390) 
4000

>  <Set>  (390) 
Probe-like

>  <Molecular_Weight>  (390) 
284.74352

>  <ALogP>  (390) 
3.765

$$$$
MMV020243
     RDKit          3D

 49 51  0  0  0  0  0  0  0  0999 V2000
   -4.4075    1.1043    0.4555 N   0  0  0  0  0  0  0  0  0  0  0  0
   -5.4928    0.5300   -0.0403 C   0  0  0  0  0  0  0  0  0  0  0  0
   -6.7130    1.2528   -0.0087 N   0  0  0  0  0  0  0  0  0  0  0  0
   -6.7128    2.5810    0.5623 C   0  0  0  0  0  0  0  0  0  0  0  0
   -7.9455    0.6836   -0.5351 C   0  0  0  0  0  0  0  0  0  0  0  0
   -5.4847   -0.7266   -0.5794 C   0  0  0  0  0  0  0  0  0  0  0  0
   -4.2808   -1.4009   -0.5940 C   0  0  0  0  0  0  0  0  0  0  0  0
   -4.2099   -2.7754   -1.1695 C   0  0  0  0  0  0  0  0  0  0  0  0
   -3.2205   -0.7685   -0.0789 N   0  0  0  0  0  0  0  0  0  0  0  0
   -3.2154    0.4540    0.4485 C   0  0  0  0  0  0  0  0  0  0  0  0
   -2.0924    1.1121    0.9890 N   0  0  0  0  0  0  0  0  0  0  0  0
   -0.7776    0.6098    1.0738 C   0  0  0  0  0  0  0  0  0  0  0  0
   -0.3596   -0.6205    0.6396 C   0  0  0  0  0  0  0  0  0  0  0  0
    0.9665   -1.0523    0.7573 C   0  0  0  0  0  0  0  0  0  0  0  0
    0.2166    1.4154    1.6485 C   0  0  0  0  0  0  0  0  0  0  0  0
    1.5213    0.9939    1.7658 C   0  0  0  0  0  0  0  0  0  0  0  0
    1.9069   -0.2507    1.3181 C   0  0  0  0  0  0  0  0  0  0  0  0
    3.2777   -0.5964    1.4831 N   0  0  0  0  0  0  0  0  0  0  0  0
    4.2725   -0.3297    0.5141 C   0  0  0  0  0  0  0  0  0  0  0  0
    3.9807    0.2390   -0.5624 O   0  0  0  0  0  0  0  0  0  0  0  0
    5.6108   -0.7400    0.8281 N   0  0  0  0  0  0  0  0  0  0  0  0
    6.6979   -0.5253   -0.0694 C   0  0  0  0  0  0  0  0  0  0  0  0
    7.3845    0.6748    0.0684 C   0  0  0  0  0  0  0  0  0  0  0  0
    8.4569    0.9830   -0.7532 C   0  0  0  0  0  0  0  0  0  0  0  0
    8.8275    0.0591   -1.7191 C   0  0  0  0  0  0  0  0  0  0  0  0
    8.1460   -1.1358   -1.8584 C   0  0  0  0  0  0  0  0  0  0  0  0
    7.0642   -1.4497   -1.0316 C   0  0  0  0  0  0  0  0  0  0  0  0
   -6.0720    2.5199    1.4768 H   0  0  0  0  0  0  0  0  0  0  0  0
   -6.2121    3.2404   -0.1874 H   0  0  0  0  0  0  0  0  0  0  0  0
   -7.7204    2.9459    0.7922 H   0  0  0  0  0  0  0  0  0  0  0  0
   -8.0354   -0.4028   -0.2446 H   0  0  0  0  0  0  0  0  0  0  0  0
   -7.8960    0.7522   -1.6395 H   0  0  0  0  0  0  0  0  0  0  0  0
   -8.8374    1.1901   -0.1402 H   0  0  0  0  0  0  0  0  0  0  0  0
   -6.3321   -1.2374   -0.9935 H   0  0  0  0  0  0  0  0  0  0  0  0
   -3.3422   -3.3422   -0.7631 H   0  0  0  0  0  0  0  0  0  0  0  0
   -5.1627   -3.2905   -0.8828 H   0  0  0  0  0  0  0  0  0  0  0  0
   -4.1284   -2.6494   -2.2744 H   0  0  0  0  0  0  0  0  0  0  0  0
   -2.2464    2.0787    1.3699 H   0  0  0  0  0  0  0  0  0  0  0  0
   -1.0312   -1.3129    0.1876 H   0  0  0  0  0  0  0  0  0  0  0  0
    1.2574   -2.0282    0.4037 H   0  0  0  0  0  0  0  0  0  0  0  0
   -0.0179    2.4136    2.0248 H   0  0  0  0  0  0  0  0  0  0  0  0
    2.2560    1.6632    2.2224 H   0  0  0  0  0  0  0  0  0  0  0  0
    3.5163   -1.0763    2.3945 H   0  0  0  0  0  0  0  0  0  0  0  0
    5.8136   -1.2181    1.7505 H   0  0  0  0  0  0  0  0  0  0  0  0
    7.1132    1.3992    0.8074 H   0  0  0  0  0  0  0  0  0  0  0  0
    9.0060    1.9131   -0.6626 H   0  0  0  0  0  0  0  0  0  0  0  0
    9.6750    0.3304   -2.3501 H   0  0  0  0  0  0  0  0  0  0  0  0
    8.4592   -1.8312   -2.6182 H   0  0  0  0  0  0  0  0  0  0  0  0
    6.5197   -2.3787   -1.1259 H   0  0  0  0  0  0  0  0  0  0  0  0
  1  2  2  0
  2  3  1  0
  3  4  1  0
  3  5  1  0
  2  6  1  0
  6  7  2  0
  7  8  1  0
  7  9  1  0
  9 10  2  0
 10 11  1  0
 11 12  1  0
 12 13  2  0
 13 14  1  0
 12 15  1  0
 15 16  2  0
 16 17  1  0
 17 18  1  0
 18 19  1  0
 19 20  2  0
 19 21  1  0
 21 22  1  0
 22 23  2  0
 23 24  1  0
 24 25  2  0
 25 26  1  0
 26 27  2  0
 10  1  1  0
 17 14  2  0
 27 22  1  0
  4 28  1  0
  4 29  1  0
  4 30  1  0
  5 31  1  0
  5 32  1  0
  5 33  1  0
  6 34  1  0
  8 35  1  0
  8 36  1  0
  8 37  1  0
 11 38  1  0
 13 39  1  0
 14 40  1  0
 15 41  1  0
 16 42  1  0
 18 43  1  0
 21 44  1  0
 23 45  1  0
 24 46  1  0
 25 47  1  0
 26 48  1  0
 27 49  1  0
M  END
>  <Batch_No>  (391) 
G869-0914

>  <EC50_nM>  (391) 
1150

>  <Set>  (391) 
Probe-like

>  <Molecular_Weight>  (391) 
362.42828

>  <ALogP>  (391) 
2.542

$$$$
MMV667489
     RDKit          3D

 48 52  0  0  0  0  0  0  0  0999 V2000
    1.1319   -1.9268   -0.3148 N   0  0  0  0  0  0  0  0  0  0  0  0
   -0.0544   -1.3184   -0.9369 C   0  0  0  0  0  0  0  0  0  0  0  0
   -1.1556   -1.3420   -0.0068 C   0  0  0  0  0  0  0  0  0  0  0  0
   -1.0799   -1.3636    1.3687 C   0  0  0  0  0  0  0  0  0  0  0  0
   -2.1831   -1.3997    2.1968 C   0  0  0  0  0  0  0  0  0  0  0  0
   -3.4548   -1.4165    1.6740 C   0  0  0  0  0  0  0  0  0  0  0  0
   -3.5655   -1.3955    0.2990 C   0  0  0  0  0  0  0  0  0  0  0  0
   -4.8674   -1.4107   -0.1994 C   0  0  0  0  0  0  0  0  0  0  0  0
   -5.0843   -1.3890   -1.5597 C   0  0  0  0  0  0  0  0  0  0  0  0
   -3.9984   -1.3524   -2.4072 C   0  0  0  0  0  0  0  0  0  0  0  0
   -2.7012   -1.3379   -1.8834 C   0  0  0  0  0  0  0  0  0  0  0  0
   -2.4606   -1.3593   -0.5266 C   0  0  0  0  0  0  0  0  0  0  0  0
    0.3167    0.0135   -1.5398 C   0  0  0  0  0  0  0  0  0  0  0  0
    1.5148   -0.2506   -2.4685 C   0  0  0  0  0  0  0  0  0  0  0  0
    2.1184    1.0726   -2.5844 C   0  0  0  0  0  0  0  0  0  0  0  0
    1.7829    1.7820   -1.5054 C   0  0  0  0  0  0  0  0  0  0  0  0
    0.9292    0.9983   -0.5781 C   0  0  0  0  0  0  0  0  0  0  0  0
    1.7412    0.3331    0.4708 C   0  0  0  0  0  0  0  0  0  0  0  0
    1.8844   -1.0592    0.5278 C   0  0  0  0  0  0  0  0  0  0  0  0
    2.7048   -1.6776    1.4533 C   0  0  0  0  0  0  0  0  0  0  0  0
    2.8799   -3.4195    1.5137 Cl  0  0  0  0  0  0  0  0  0  0  0  0
    3.4127   -0.9264    2.3612 C   0  0  0  0  0  0  0  0  0  0  0  0
    3.2724    0.4290    2.3131 C   0  0  0  0  0  0  0  0  0  0  0  0
    2.4459    1.0806    1.3846 C   0  0  0  0  0  0  0  0  0  0  0  0
    2.3110    2.5109    1.5630 C   0  0  0  0  0  0  0  0  0  0  0  0
    1.4147    3.3266    0.9075 O   0  0  0  0  0  0  0  0  0  0  0  0
    1.3206    4.7195    1.1260 C   0  0  0  0  0  0  0  0  0  0  0  0
    3.0660    3.1283    2.4016 O   0  0  0  0  0  0  0  0  0  0  0  0
    1.4121   -2.9081   -0.4663 H   0  0  0  0  0  0  0  0  0  0  0  0
   -0.2760   -2.0264   -1.7876 H   0  0  0  0  0  0  0  0  0  0  0  0
   -0.1199   -1.3562    1.8577 H   0  0  0  0  0  0  0  0  0  0  0  0
   -2.0786   -1.4156    3.2758 H   0  0  0  0  0  0  0  0  0  0  0  0
   -4.3219   -1.4448    2.3139 H   0  0  0  0  0  0  0  0  0  0  0  0
   -5.7270   -1.4394    0.4581 H   0  0  0  0  0  0  0  0  0  0  0  0
   -6.0750   -1.3997   -1.9927 H   0  0  0  0  0  0  0  0  0  0  0  0
   -4.1839   -1.3356   -3.4730 H   0  0  0  0  0  0  0  0  0  0  0  0
   -1.9165   -1.3057   -2.6193 H   0  0  0  0  0  0  0  0  0  0  0  0
   -0.4963    0.5273   -2.0411 H   0  0  0  0  0  0  0  0  0  0  0  0
    1.1755   -0.6811   -3.4286 H   0  0  0  0  0  0  0  0  0  0  0  0
    2.1813   -0.9535   -1.9110 H   0  0  0  0  0  0  0  0  0  0  0  0
    2.7377    1.3819   -3.4391 H   0  0  0  0  0  0  0  0  0  0  0  0
    2.1582    2.8192   -1.4379 H   0  0  0  0  0  0  0  0  0  0  0  0
    0.1641    1.6767   -0.1358 H   0  0  0  0  0  0  0  0  0  0  0  0
    4.0605   -1.3934    3.0909 H   0  0  0  0  0  0  0  0  0  0  0  0
    3.8468    1.0007    3.0483 H   0  0  0  0  0  0  0  0  0  0  0  0
    0.8672    4.8758    2.1289 H   0  0  0  0  0  0  0  0  0  0  0  0
    2.3273    5.1607    1.1068 H   0  0  0  0  0  0  0  0  0  0  0  0
    0.6217    5.1680    0.4018 H   0  0  0  0  0  0  0  0  0  0  0  0
  1  2  1  0
  2  3  1  0
  3  4  2  0
  4  5  1  0
  5  6  2  0
  6  7  1  0
  7  8  1  0
  8  9  2  0
  9 10  1  0
 10 11  2  0
  7 12  2  0
  2 13  1  0
 13 14  1  0
 14 15  1  0
 15 16  2  0
 13 17  1  0
 17 18  1  0
 18 19  2  0
 19 20  1  0
 20 21  1  0
 20 22  2  0
 22 23  1  0
 23 24  2  0
 24 25  1  0
 25 26  1  0
 26 27  1  0
 25 28  2  0
 19  1  1  0
 12  3  1  0
 12 11  1  0
 17 16  1  0
 24 18  1  0
  1 29  1  0
  2 30  1  0
  4 31  1  0
  5 32  1  0
  6 33  1  0
  8 34  1  0
  9 35  1  0
 10 36  1  0
 11 37  1  0
 13 38  1  0
 14 39  1  0
 14 40  1  0
 15 41  1  0
 16 42  1  0
 17 43  1  0
 22 44  1  0
 23 45  1  0
 27 46  1  0
 27 47  1  0
 27 48  1  0
M  END
>  <Batch_No>  (392) 
STK119631

>  <EC50_nM>  (392) 
939

>  <Set>  (392) 
Probe-like

>  <Molecular_Weight>  (392) 
389.87409

>  <ALogP>  (392) 
5.421

$$$$
MMV396770
     RDKit          3D

 50 53  0  0  0  0  0  0  0  0999 V2000
   -1.8017    1.2164    0.5772 C   0  0  0  0  0  0  0  0  0  0  0  0
   -2.2601    0.0253    0.1090 N   0  0  0  0  0  0  0  0  0  0  0  0
   -0.6244    1.2217    1.1942 N   0  0  0  0  0  0  0  0  0  0  0  0
    0.1379    0.1290    1.3834 C   0  0  0  0  0  0  0  0  0  0  0  0
    1.3814    0.2536    2.0584 N   0  0  0  0  0  0  0  0  0  0  0  0
    2.5862    0.5221    1.4240 N   0  0  0  0  0  0  0  0  0  0  0  0
    3.4503   -0.4955    0.9333 C   0  0  0  0  0  0  0  0  0  0  0  0
    3.0479   -1.6913    1.1122 O   0  0  0  0  0  0  0  0  0  0  0  0
    4.7144   -0.1996    0.2684 C   0  0  0  0  0  0  0  0  0  0  0  0
    5.1900    1.0668    0.0552 C   0  0  0  0  0  0  0  0  0  0  0  0
    6.4003    1.2594   -0.5844 C   0  0  0  0  0  0  0  0  0  0  0  0
    5.4746   -1.2642   -0.1712 C   0  0  0  0  0  0  0  0  0  0  0  0
    6.6825   -1.1200   -0.8111 C   0  0  0  0  0  0  0  0  0  0  0  0
    7.1456    0.1677   -1.0170 C   0  0  0  0  0  0  0  0  0  0  0  0
   -0.3241   -1.0847    0.9090 C   0  0  0  0  0  0  0  0  0  0  0  0
   -1.5356   -1.1137    0.2696 C   0  0  0  0  0  0  0  0  0  0  0  0
   -2.0757   -2.3420   -0.2480 N   0  0  0  0  0  0  0  0  0  0  0  0
   -3.3315   -2.4366   -0.9251 C   0  0  0  0  0  0  0  0  0  0  0  0
   -3.3682   -3.8888   -1.4127 C   0  0  0  0  0  0  0  0  0  0  0  0
   -1.8940   -4.3134   -1.4121 C   0  0  0  0  0  0  0  0  0  0  0  0
   -1.4170   -3.6304   -0.1473 C   0  0  0  0  0  0  0  0  0  0  0  0
   -2.5936    2.3803    0.3861 N   0  0  0  0  0  0  0  0  0  0  0  0
   -3.8616    2.4614   -0.2656 C   0  0  0  0  0  0  0  0  0  0  0  0
   -2.1783    3.7081    0.8624 C   0  0  0  0  0  0  0  0  0  0  0  0
   -3.3620    4.6042    0.5936 C   0  0  0  0  0  0  0  0  0  0  0  0
   -4.0337    3.9299   -0.5745 C   0  0  0  0  0  0  0  0  0  0  0  0
    1.3722    0.1331    3.0965 H   0  0  0  0  0  0  0  0  0  0  0  0
    2.8440    1.5347    1.3165 H   0  0  0  0  0  0  0  0  0  0  0  0
    4.6177    1.9125    0.3877 H   0  0  0  0  0  0  0  0  0  0  0  0
    6.7931    2.2408   -0.7627 H   0  0  0  0  0  0  0  0  0  0  0  0
    5.1331   -2.2938   -0.0218 H   0  0  0  0  0  0  0  0  0  0  0  0
    7.2532   -1.9587   -1.1426 H   0  0  0  0  0  0  0  0  0  0  0  0
    8.0932    0.3499   -1.5166 H   0  0  0  0  0  0  0  0  0  0  0  0
    0.2655   -1.9773    1.0461 H   0  0  0  0  0  0  0  0  0  0  0  0
   -3.4583   -1.7333   -1.7733 H   0  0  0  0  0  0  0  0  0  0  0  0
   -4.1431   -2.2961   -0.1823 H   0  0  0  0  0  0  0  0  0  0  0  0
   -3.8205   -3.9761   -2.4219 H   0  0  0  0  0  0  0  0  0  0  0  0
   -3.8528   -4.5529   -0.6565 H   0  0  0  0  0  0  0  0  0  0  0  0
   -1.8024   -5.4145   -1.3411 H   0  0  0  0  0  0  0  0  0  0  0  0
   -1.3740   -3.8594   -2.2574 H   0  0  0  0  0  0  0  0  0  0  0  0
   -0.3121   -3.5323   -0.1412 H   0  0  0  0  0  0  0  0  0  0  0  0
   -1.7324   -4.1764    0.7815 H   0  0  0  0  0  0  0  0  0  0  0  0
   -4.7175    2.1678    0.3836 H   0  0  0  0  0  0  0  0  0  0  0  0
   -3.9277    1.8536   -1.1932 H   0  0  0  0  0  0  0  0  0  0  0  0
   -1.2907    3.9570    0.2463 H   0  0  0  0  0  0  0  0  0  0  0  0
   -1.9024    3.6150    1.9188 H   0  0  0  0  0  0  0  0  0  0  0  0
   -2.9637    5.6016    0.3183 H   0  0  0  0  0  0  0  0  0  0  0  0
   -3.9675    4.5995    1.5081 H   0  0  0  0  0  0  0  0  0  0  0  0
   -3.5577    4.2104   -1.5150 H   0  0  0  0  0  0  0  0  0  0  0  0
   -5.0988    4.2294   -0.6451 H   0  0  0  0  0  0  0  0  0  0  0  0
  1  2  2  0
  1  3  1  0
  3  4  2  0
  4  5  1  0
  5  6  1  0
  6  7  1  0
  7  8  2  0
  7  9  1  0
  9 10  2  0
 10 11  1  0
  9 12  1  0
 12 13  2  0
 13 14  1  0
  4 15  1  0
 15 16  2  0
 16 17  1  0
 17 18  1  0
 18 19  1  0
 19 20  1  0
 17 21  1  0
  1 22  1  0
 22 23  1  0
 22 24  1  0
 24 25  1  0
 25 26  1  0
 16  2  1  0
 14 11  2  0
 21 20  1  0
 26 23  1  0
  5 27  1  0
  6 28  1  0
 10 29  1  0
 11 30  1  0
 12 31  1  0
 13 32  1  0
 14 33  1  0
 15 34  1  0
 18 35  1  0
 18 36  1  0
 19 37  1  0
 19 38  1  0
 20 39  1  0
 20 40  1  0
 21 41  1  0
 21 42  1  0
 23 43  1  0
 23 44  1  0
 24 45  1  0
 24 46  1  0
 25 47  1  0
 25 48  1  0
 26 49  1  0
 26 50  1  0
M  END
>  <Batch_No>  (393) 
STK675349

>  <EC50_nM>  (393) 
1330

>  <Set>  (393) 
Probe-like

>  <Molecular_Weight>  (393) 
352.43345

>  <ALogP>  (393) 
2.446

$$$$
MMV009015
     RDKit          3D

 56 58  0  0  0  0  0  0  0  0999 V2000
    0.5968   -1.6773   -0.0991 O   0  0  0  0  0  0  0  0  0  0  0  0
    1.4841   -0.7588    0.5236 C   0  0  0  0  0  0  0  0  0  0  0  0
    1.0909    0.6330    0.1521 C   0  0  0  0  0  0  0  0  0  0  0  0
   -0.1555    1.0554    0.6009 O   0  0  0  0  0  0  0  0  0  0  0  0
   -0.6696    1.2633    1.8232 C   0  0  0  0  0  0  0  0  0  0  0  0
   -0.0264    1.1225    3.0342 C   0  0  0  0  0  0  0  0  0  0  0  0
   -0.6252    1.3580    4.2548 C   0  0  0  0  0  0  0  0  0  0  0  0
   -1.9393    1.7575    4.2792 C   0  0  0  0  0  0  0  0  0  0  0  0
   -2.6302    1.9154    3.1045 C   0  0  0  0  0  0  0  0  0  0  0  0
   -2.0125    1.6747    1.8991 C   0  0  0  0  0  0  0  0  0  0  0  0
   -2.7543    1.8505    0.6552 C   0  0  0  0  0  0  0  0  0  0  0  0
   -2.1844    1.6424   -0.4581 O   0  0  0  0  0  0  0  0  0  0  0  0
   -4.1748    2.2682    0.5964 C   0  0  0  0  0  0  0  0  0  0  0  0
   -5.0909    1.0713    0.4108 C   0  0  0  0  0  0  0  0  0  0  0  0
   -4.7836    0.3585   -0.8532 C   0  0  0  0  0  0  0  0  0  0  0  0
   -3.8242   -0.6316   -0.8201 C   0  0  0  0  0  0  0  0  0  0  0  0
   -3.5688   -1.2760   -2.0139 C   0  0  0  0  0  0  0  0  0  0  0  0
   -4.2407   -0.9468   -3.1876 C   0  0  0  0  0  0  0  0  0  0  0  0
   -5.2003    0.0543   -3.1862 C   0  0  0  0  0  0  0  0  0  0  0  0
   -5.4726    0.7175   -1.9877 C   0  0  0  0  0  0  0  0  0  0  0  0
    2.8853   -1.1618    0.3486 C   0  0  0  0  0  0  0  0  0  0  0  0
    3.4838   -1.2944   -0.8953 N   0  0  0  0  0  0  0  0  0  0  0  0
    3.7945   -0.1761   -1.6604 C   0  0  0  0  0  0  0  0  0  0  0  0
    5.2990    0.1084   -1.3922 C   0  0  0  0  0  0  0  0  0  0  0  0
    6.0174   -1.0307   -2.0316 C   0  0  0  0  0  0  0  0  0  0  0  0
    5.6214   -2.3732   -1.4871 C   0  0  0  0  0  0  0  0  0  0  0  0
    4.1743   -2.4974   -1.1460 C   0  0  0  0  0  0  0  0  0  0  0  0
    0.5032   -2.4897    0.4889 H   0  0  0  0  0  0  0  0  0  0  0  0
    1.2044   -0.9005    1.6316 H   0  0  0  0  0  0  0  0  0  0  0  0
    1.1005    0.6359   -0.9929 H   0  0  0  0  0  0  0  0  0  0  0  0
    1.8968    1.3510    0.4285 H   0  0  0  0  0  0  0  0  0  0  0  0
    1.0169    0.8298    3.0756 H   0  0  0  0  0  0  0  0  0  0  0  0
   -0.0748    1.2333    5.1851 H   0  0  0  0  0  0  0  0  0  0  0  0
   -2.3751    1.9314    5.2536 H   0  0  0  0  0  0  0  0  0  0  0  0
   -3.6675    2.2323    3.1993 H   0  0  0  0  0  0  0  0  0  0  0  0
   -4.3753    2.9562   -0.2602 H   0  0  0  0  0  0  0  0  0  0  0  0
   -4.5164    2.8176    1.4890 H   0  0  0  0  0  0  0  0  0  0  0  0
   -6.1339    1.4715    0.4401 H   0  0  0  0  0  0  0  0  0  0  0  0
   -5.0179    0.3736    1.2829 H   0  0  0  0  0  0  0  0  0  0  0  0
   -3.2786   -0.9212    0.0580 H   0  0  0  0  0  0  0  0  0  0  0  0
   -2.8211   -2.0535   -2.0098 H   0  0  0  0  0  0  0  0  0  0  0  0
   -3.9767   -1.5013   -4.0742 H   0  0  0  0  0  0  0  0  0  0  0  0
   -5.7337    0.3159   -4.1109 H   0  0  0  0  0  0  0  0  0  0  0  0
   -6.2300    1.5110   -1.9768 H   0  0  0  0  0  0  0  0  0  0  0  0
    3.5155   -0.4509    0.9629 H   0  0  0  0  0  0  0  0  0  0  0  0
    2.9719   -2.1817    0.8827 H   0  0  0  0  0  0  0  0  0  0  0  0
    3.3136    0.7446   -1.3649 H   0  0  0  0  0  0  0  0  0  0  0  0
    3.7335   -0.3276   -2.7623 H   0  0  0  0  0  0  0  0  0  0  0  0
    5.4755    0.0655   -0.2952 H   0  0  0  0  0  0  0  0  0  0  0  0
    5.5943    1.0569   -1.8385 H   0  0  0  0  0  0  0  0  0  0  0  0
    7.1063   -0.8533   -1.9307 H   0  0  0  0  0  0  0  0  0  0  0  0
    5.8075   -1.0025   -3.1267 H   0  0  0  0  0  0  0  0  0  0  0  0
    6.2493   -2.5378   -0.5891 H   0  0  0  0  0  0  0  0  0  0  0  0
    5.9256   -3.1383   -2.2279 H   0  0  0  0  0  0  0  0  0  0  0  0
    3.6520   -3.0123   -2.0072 H   0  0  0  0  0  0  0  0  0  0  0  0
    4.0397   -3.1828   -0.2829 H   0  0  0  0  0  0  0  0  0  0  0  0
  1  2  1  0
  2  3  1  0
  3  4  1  0
  4  5  1  0
  5  6  2  0
  6  7  1  0
  7  8  2  0
  8  9  1  0
  9 10  2  0
 10 11  1  0
 11 12  2  0
 11 13  1  0
 13 14  1  0
 14 15  1  0
 15 16  2  0
 16 17  1  0
 17 18  2  0
 18 19  1  0
 19 20  2  0
  2 21  1  0
 21 22  1  0
 22 23  1  0
 23 24  1  0
 24 25  1  0
 25 26  1  0
 26 27  1  0
 10  5  1  0
 20 15  1  0
 27 22  1  0
  1 28  1  0
  2 29  1  0
  3 30  1  0
  3 31  1  0
  6 32  1  0
  7 33  1  0
  8 34  1  0
  9 35  1  0
 13 36  1  0
 13 37  1  0
 14 38  1  0
 14 39  1  0
 16 40  1  0
 17 41  1  0
 18 42  1  0
 19 43  1  0
 20 44  1  0
 21 45  1  0
 21 46  1  0
 23 47  1  0
 23 48  1  0
 24 49  1  0
 24 50  1  0
 25 51  1  0
 25 52  1  0
 26 53  1  0
 26 54  1  0
 27 55  1  0
 27 56  1  0
M  END
>  <Batch_No>  (394) 
STK318552

>  <EC50_nM>  (394) 
676.5

>  <Set>  (394) 
Probe-like

>  <Molecular_Weight>  (394) 
367.48126

>  <ALogP>  (394) 
4.254

$$$$
MMV008829
     RDKit          3D

 56 59  0  0  0  0  0  0  0  0999 V2000
   -3.9471   -4.0909    0.9862 C   0  0  0  0  0  0  0  0  0  0  0  0
   -2.8959   -3.0063    1.0714 C   0  0  0  0  0  0  0  0  0  0  0  0
   -2.6315   -2.4679   -0.3378 C   0  0  0  0  0  0  0  0  0  0  0  0
   -1.6288   -1.4221   -0.3053 N   0  0  0  0  0  0  0  0  0  0  0  0
   -0.2961   -1.6976   -0.4360 C   0  0  0  0  0  0  0  0  0  0  0  0
    0.0070   -2.9264   -0.5741 N   0  0  0  0  0  0  0  0  0  0  0  0
    0.6111   -0.6630   -0.4047 C   0  0  0  0  0  0  0  0  0  0  0  0
    0.1758    0.6355   -0.2422 C   0  0  0  0  0  0  0  0  0  0  0  0
   -1.1713    0.9051   -0.1105 C   0  0  0  0  0  0  0  0  0  0  0  0
   -2.0695   -0.1534   -0.1452 C   0  0  0  0  0  0  0  0  0  0  0  0
   -3.3738    0.1491   -0.0096 N   0  0  0  0  0  0  0  0  0  0  0  0
   -3.8048    1.4118    0.1535 C   0  0  0  0  0  0  0  0  0  0  0  0
   -2.9559    2.4677    0.1925 N   0  0  0  0  0  0  0  0  0  0  0  0
   -3.3940    3.7351    0.3579 C   0  0  0  0  0  0  0  0  0  0  0  0
   -4.7512    4.0024    0.4958 C   0  0  0  0  0  0  0  0  0  0  0  0
   -5.6382    2.9439    0.4595 C   0  0  0  0  0  0  0  0  0  0  0  0
   -5.1722    1.6393    0.2880 C   0  0  0  0  0  0  0  0  0  0  0  0
   -6.1454    0.5069    0.2510 C   0  0  0  0  0  0  0  0  0  0  0  0
   -1.6389    2.2056    0.0595 C   0  0  0  0  0  0  0  0  0  0  0  0
   -0.8453    3.1744    0.0942 O   0  0  0  0  0  0  0  0  0  0  0  0
    2.0422   -0.8873   -0.5487 C   0  0  0  0  0  0  0  0  0  0  0  0
    2.4635   -1.7639   -1.3605 O   0  0  0  0  0  0  0  0  0  0  0  0
    3.0248   -0.1742    0.1728 N   0  0  0  0  0  0  0  0  0  0  0  0
    4.4154   -0.4991   -0.0689 C   0  0  0  0  0  0  0  0  0  0  0  0
    4.9138    0.6456   -0.9745 C   0  0  0  0  0  0  0  0  0  0  0  0
    5.3499    1.7499   -0.0364 C   0  0  0  0  0  0  0  0  0  0  0  0
    6.7183    1.3064    0.4942 C   0  0  0  0  0  0  0  0  0  0  0  0
    6.6507   -0.1144    1.0012 C   0  0  0  0  0  0  0  0  0  0  0  0
    5.2293   -0.5929    1.1753 C   0  0  0  0  0  0  0  0  0  0  0  0
   -4.0277   -4.4978   -0.0315 H   0  0  0  0  0  0  0  0  0  0  0  0
   -4.9247   -3.5975    1.2564 H   0  0  0  0  0  0  0  0  0  0  0  0
   -3.7258   -4.9068    1.7225 H   0  0  0  0  0  0  0  0  0  0  0  0
   -3.1738   -2.1894    1.7677 H   0  0  0  0  0  0  0  0  0  0  0  0
   -1.9444   -3.4415    1.4617 H   0  0  0  0  0  0  0  0  0  0  0  0
   -2.3034   -3.3258   -0.9372 H   0  0  0  0  0  0  0  0  0  0  0  0
   -3.5868   -2.1273   -0.7764 H   0  0  0  0  0  0  0  0  0  0  0  0
    0.9378   -3.3266   -0.6846 H   0  0  0  0  0  0  0  0  0  0  0  0
    0.8764    1.4620   -0.2158 H   0  0  0  0  0  0  0  0  0  0  0  0
   -2.6424    4.5142    0.3778 H   0  0  0  0  0  0  0  0  0  0  0  0
   -5.0442    5.0324    0.6254 H   0  0  0  0  0  0  0  0  0  0  0  0
   -6.7127    3.1347    0.5660 H   0  0  0  0  0  0  0  0  0  0  0  0
   -6.2366   -0.0221    1.2160 H   0  0  0  0  0  0  0  0  0  0  0  0
   -7.1440    0.9134   -0.0132 H   0  0  0  0  0  0  0  0  0  0  0  0
   -5.7939   -0.1730   -0.5761 H   0  0  0  0  0  0  0  0  0  0  0  0
    2.7558    0.5636    0.8571 H   0  0  0  0  0  0  0  0  0  0  0  0
    4.5219   -1.3992   -0.7191 H   0  0  0  0  0  0  0  0  0  0  0  0
    5.7845    0.2637   -1.5522 H   0  0  0  0  0  0  0  0  0  0  0  0
    4.0928    0.9302   -1.6325 H   0  0  0  0  0  0  0  0  0  0  0  0
    5.4841    2.7139   -0.5592 H   0  0  0  0  0  0  0  0  0  0  0  0
    4.6610    1.7826    0.8237 H   0  0  0  0  0  0  0  0  0  0  0  0
    7.3974    1.3131   -0.3912 H   0  0  0  0  0  0  0  0  0  0  0  0
    7.0735    2.0397    1.2268 H   0  0  0  0  0  0  0  0  0  0  0  0
    7.2302   -0.8192    0.3609 H   0  0  0  0  0  0  0  0  0  0  0  0
    7.1279   -0.1315    2.0025 H   0  0  0  0  0  0  0  0  0  0  0  0
    5.2930   -1.6592    1.4805 H   0  0  0  0  0  0  0  0  0  0  0  0
    4.7820   -0.0658    2.0475 H   0  0  0  0  0  0  0  0  0  0  0  0
  1  2  1  0
  2  3  1  0
  3  4  1  0
  4  5  1  0
  5  6  2  3
  5  7  1  0
  7  8  2  0
  8  9  1  0
  9 10  2  0
 10 11  1  0
 11 12  2  0
 12 13  1  0
 13 14  1  0
 14 15  2  0
 15 16  1  0
 16 17  2  0
 17 18  1  0
 13 19  1  0
 19 20  2  0
  7 21  1  0
 21 22  2  0
 21 23  1  0
 23 24  1  0
 24 25  1  0
 25 26  1  0
 26 27  1  0
 27 28  1  0
 28 29  1  0
 10  4  1  0
 19  9  1  0
 17 12  1  0
 29 24  1  0
  1 30  1  0
  1 31  1  0
  1 32  1  0
  2 33  1  0
  2 34  1  0
  3 35  1  0
  3 36  1  0
  6 37  1  0
  8 38  1  0
 14 39  1  0
 15 40  1  0
 16 41  1  0
 18 42  1  0
 18 43  1  0
 18 44  1  0
 23 45  1  0
 24 46  1  0
 25 47  1  0
 25 48  1  0
 26 49  1  0
 26 50  1  0
 27 51  1  0
 27 52  1  0
 28 53  1  0
 28 54  1  0
 29 55  1  0
 29 56  1  0
M  END
>  <Batch_No>  (395) 
STK703735

>  <EC50_nM>  (395) 
1109

>  <Set>  (395) 
Probe-like

>  <Molecular_Weight>  (395) 
393.48207

>  <ALogP>  (395) 
2.431

$$$$
MMV011895
     RDKit          3D

 64 70  0  0  0  0  0  0  0  0999 V2000
   13.6712    0.5539   -0.0494 N   0  0  0  0  0  0  0  0  0  0  0  0
   12.2794    0.3223   -0.0661 C   0  0  0  0  0  0  0  0  0  0  0  0
   11.4551    1.3632    0.3325 C   0  0  0  0  0  0  0  0  0  0  0  0
   10.0862    1.1944    0.3366 C   0  0  0  0  0  0  0  0  0  0  0  0
    9.4779    0.0048   -0.0481 C   0  0  0  0  0  0  0  0  0  0  0  0
   10.3159   -1.0145   -0.4399 C   0  0  0  0  0  0  0  0  0  0  0  0
   11.6922   -0.8614   -0.4497 C   0  0  0  0  0  0  0  0  0  0  0  0
    8.0251   -0.1480   -0.0346 C   0  0  0  0  0  0  0  0  0  0  0  0
    7.1657    0.8064    0.3356 N   0  0  0  0  0  0  0  0  0  0  0  0
    5.8960    0.3661    0.2410 C   0  0  0  0  0  0  0  0  0  0  0  0
    4.6909    0.9820    0.5097 C   0  0  0  0  0  0  0  0  0  0  0  0
    3.5206    0.2691    0.3161 C   0  0  0  0  0  0  0  0  0  0  0  0
    2.3361    0.9344    0.6010 O   0  0  0  0  0  0  0  0  0  0  0  0
    1.1362    0.2595    0.4218 C   0  0  0  0  0  0  0  0  0  0  0  0
    0.5453    0.3677   -0.8411 C   0  0  0  0  0  0  0  0  0  0  0  0
   -0.6497   -0.2828   -1.0774 C   0  0  0  0  0  0  0  0  0  0  0  0
   -1.2320   -1.0258   -0.0566 C   0  0  0  0  0  0  0  0  0  0  0  0
   -2.4450   -1.6533   -0.3837 O   0  0  0  0  0  0  0  0  0  0  0  0
   -3.6347   -0.9359   -0.1575 C   0  0  0  0  0  0  0  0  0  0  0  0
   -3.5311    0.3340    0.3697 C   0  0  0  0  0  0  0  0  0  0  0  0
   -4.6714    1.0719    0.6072 C   0  0  0  0  0  0  0  0  0  0  0  0
   -5.8847    0.4841    0.2963 C   0  0  0  0  0  0  0  0  0  0  0  0
   -7.1126    0.9863    0.4321 N   0  0  0  0  0  0  0  0  0  0  0  0
   -8.0229    0.0650    0.0017 C   0  0  0  0  0  0  0  0  0  0  0  0
   -7.3027   -0.9993   -0.3939 N   0  0  0  0  0  0  0  0  0  0  0  0
   -5.9814   -0.7923   -0.2331 C   0  0  0  0  0  0  0  0  0  0  0  0
   -4.8371   -1.5331   -0.4716 C   0  0  0  0  0  0  0  0  0  0  0  0
   -9.4797    0.2163   -0.0198 C   0  0  0  0  0  0  0  0  0  0  0  0
  -10.3251   -0.7751   -0.4752 C   0  0  0  0  0  0  0  0  0  0  0  0
  -11.7095   -0.5733   -0.4717 C   0  0  0  0  0  0  0  0  0  0  0  0
  -12.2495    0.6278   -0.0097 C   0  0  0  0  0  0  0  0  0  0  0  0
  -13.6522    0.8419   -0.0023 N   0  0  0  0  0  0  0  0  0  0  0  0
  -11.3888    1.6161    0.4453 C   0  0  0  0  0  0  0  0  0  0  0  0
  -10.0235    1.3995    0.4347 C   0  0  0  0  0  0  0  0  0  0  0  0
   -0.6644   -1.1437    1.1935 C   0  0  0  0  0  0  0  0  0  0  0  0
    0.5425   -0.4868    1.4325 C   0  0  0  0  0  0  0  0  0  0  0  0
    3.5488   -1.0351   -0.1375 C   0  0  0  0  0  0  0  0  0  0  0  0
    4.7776   -1.6105   -0.3932 C   0  0  0  0  0  0  0  0  0  0  0  0
    5.9622   -0.9344   -0.2130 C   0  0  0  0  0  0  0  0  0  0  0  0
    7.2743   -1.2128   -0.3695 N   0  0  0  0  0  0  0  0  0  0  0  0
   14.2101    0.8386    0.8118 H   0  0  0  0  0  0  0  0  0  0  0  0
   14.2564    0.4506   -0.9221 H   0  0  0  0  0  0  0  0  0  0  0  0
   11.8597    2.3264    0.6481 H   0  0  0  0  0  0  0  0  0  0  0  0
    9.4190    2.0109    0.6502 H   0  0  0  0  0  0  0  0  0  0  0  0
    9.8668   -1.9636   -0.7484 H   0  0  0  0  0  0  0  0  0  0  0  0
   12.3664   -1.6692   -0.7607 H   0  0  0  0  0  0  0  0  0  0  0  0
    4.7108    2.0044    0.8634 H   0  0  0  0  0  0  0  0  0  0  0  0
    1.0220    0.9530   -1.6155 H   0  0  0  0  0  0  0  0  0  0  0  0
   -1.1201   -0.2081   -2.0520 H   0  0  0  0  0  0  0  0  0  0  0  0
   -2.5701    0.7858    0.6103 H   0  0  0  0  0  0  0  0  0  0  0  0
   -4.5730    2.0519    1.0151 H   0  0  0  0  0  0  0  0  0  0  0  0
   -7.3552    1.9385    0.8090 H   0  0  0  0  0  0  0  0  0  0  0  0
   -4.9211   -2.5326   -0.8866 H   0  0  0  0  0  0  0  0  0  0  0  0
   -9.8967   -1.7170   -0.8372 H   0  0  0  0  0  0  0  0  0  0  0  0
  -12.3489   -1.3613   -0.8318 H   0  0  0  0  0  0  0  0  0  0  0  0
  -14.0299    1.5379    0.7043 H   0  0  0  0  0  0  0  0  0  0  0  0
  -14.2514    0.3329   -0.6620 H   0  0  0  0  0  0  0  0  0  0  0  0
  -11.8224    2.5550    0.8058 H   0  0  0  0  0  0  0  0  0  0  0  0
   -9.3878    2.1951    0.7977 H   0  0  0  0  0  0  0  0  0  0  0  0
   -1.1450   -1.7289    1.9614 H   0  0  0  0  0  0  0  0  0  0  0  0
    1.0331   -0.5467    2.4012 H   0  0  0  0  0  0  0  0  0  0  0  0
    2.6133   -1.5530   -0.2742 H   0  0  0  0  0  0  0  0  0  0  0  0
    4.8170   -2.6194   -0.7449 H   0  0  0  0  0  0  0  0  0  0  0  0
    7.6458   -2.1299   -0.7045 H   0  0  0  0  0  0  0  0  0  0  0  0
  1  2  1  0
  2  3  2  0
  3  4  1  0
  4  5  2  0
  5  6  1  0
  6  7  2  0
  5  8  1  0
  8  9  2  0
  9 10  1  0
 10 11  2  0
 11 12  1  0
 12 13  1  0
 13 14  1  0
 14 15  2  0
 15 16  1  0
 16 17  2  0
 17 18  1  0
 18 19  1  0
 19 20  2  0
 20 21  1  0
 21 22  2  0
 22 23  1  0
 23 24  1  0
 24 25  2  0
 25 26  1  0
 26 27  2  0
 24 28  1  0
 28 29  2  0
 29 30  1  0
 30 31  2  0
 31 32  1  0
 31 33  1  0
 33 34  2  0
 17 35  1  0
 35 36  2  0
 12 37  2  0
 37 38  1  0
 38 39  2  0
 39 40  1  0
  7  2  1  0
 40  8  1  0
 39 10  1  0
 36 14  1  0
 27 19  1  0
 26 22  1  0
 34 28  1  0
  1 41  1  0
  1 42  1  0
  3 43  1  0
  4 44  1  0
  6 45  1  0
  7 46  1  0
 11 47  1  0
 15 48  1  0
 16 49  1  0
 20 50  1  0
 21 51  1  0
 23 52  1  0
 27 53  1  0
 29 54  1  0
 30 55  1  0
 32 56  1  0
 32 57  1  0
 33 58  1  0
 34 59  1  0
 35 60  1  0
 36 61  1  0
 37 62  1  0
 38 63  1  0
 40 64  1  0
M  END
>  <Batch_No>  (396) 
STK391667

>  <EC50_nM>  (396) 
842

>  <Set>  (396) 
Probe-like

>  <Molecular_Weight>  (396) 
524.57196

>  <ALogP>  (396) 
6.338

$$$$
MMV666689
     RDKit          3D

 55 58  0  0  0  0  0  0  0  0999 V2000
   -6.2632   -4.2111   -1.1407 C   0  0  0  0  0  0  0  0  0  0  0  0
   -5.3560   -4.7902   -0.2367 O   0  0  0  0  0  0  0  0  0  0  0  0
   -4.1905   -4.1527    0.1648 C   0  0  0  0  0  0  0  0  0  0  0  0
   -3.3590   -4.7968    1.0571 C   0  0  0  0  0  0  0  0  0  0  0  0
   -2.1981   -4.1855    1.4703 C   0  0  0  0  0  0  0  0  0  0  0  0
   -1.8047   -2.9264    1.0306 C   0  0  0  0  0  0  0  0  0  0  0  0
   -0.6027   -2.3724    1.5118 N   0  0  0  0  0  0  0  0  0  0  0  0
   -0.0122   -1.1536    1.1306 C   0  0  0  0  0  0  0  0  0  0  0  0
    1.1532   -0.7627    1.7442 N   0  0  0  0  0  0  0  0  0  0  0  0
    1.7687    0.3854    1.4247 C   0  0  0  0  0  0  0  0  0  0  0  0
    2.9886    0.7657    2.0921 N   0  0  0  0  0  0  0  0  0  0  0  0
    3.6117    1.9232    1.7516 N   0  0  0  0  0  0  0  0  0  0  0  0
    4.6241    2.0355    1.0161 C   0  0  0  0  0  0  0  0  0  0  0  0
    5.4037    1.0303    0.3368 C   0  0  0  0  0  0  0  0  0  0  0  0
    5.1724   -0.3193    0.3610 C   0  0  0  0  0  0  0  0  0  0  0  0
    5.9640   -1.2467   -0.3147 C   0  0  0  0  0  0  0  0  0  0  0  0
    7.0380   -0.8073   -1.0503 C   0  0  0  0  0  0  0  0  0  0  0  0
    7.8609   -1.7083   -1.7463 O   0  0  0  0  0  0  0  0  0  0  0  0
    7.3044    0.5400   -1.1004 C   0  0  0  0  0  0  0  0  0  0  0  0
    6.5127    1.4320   -0.4284 C   0  0  0  0  0  0  0  0  0  0  0  0
    1.2372    1.1911    0.4723 N   0  0  0  0  0  0  0  0  0  0  0  0
    0.0889    0.8488   -0.1618 C   0  0  0  0  0  0  0  0  0  0  0  0
   -0.5117    1.6577   -1.1628 N   0  0  0  0  0  0  0  0  0  0  0  0
   -1.5164    2.6185   -0.8942 C   0  0  0  0  0  0  0  0  0  0  0  0
   -2.0636    3.3950   -1.9072 C   0  0  0  0  0  0  0  0  0  0  0  0
   -3.0455    4.3216   -1.6233 C   0  0  0  0  0  0  0  0  0  0  0  0
   -3.5058    4.4996   -0.3359 C   0  0  0  0  0  0  0  0  0  0  0  0
   -2.9686    3.7316    0.6841 C   0  0  0  0  0  0  0  0  0  0  0  0
   -1.9864    2.8076    0.3874 C   0  0  0  0  0  0  0  0  0  0  0  0
   -4.5236    5.4707   -0.0986 N   0  0  0  0  0  0  0  0  0  0  0  0
   -4.9477    5.6386    1.0562 O   0  0  0  0  0  0  0  0  0  0  0  0
   -5.0514    6.2336   -1.1316 O   0  0  0  0  0  0  0  0  0  0  0  0
   -0.4713   -0.3099    0.2067 N   0  0  0  0  0  0  0  0  0  0  0  0
   -2.6565   -2.3116    0.1414 C   0  0  0  0  0  0  0  0  0  0  0  0
   -3.8399   -2.9043   -0.2966 C   0  0  0  0  0  0  0  0  0  0  0  0
   -5.9052   -4.3105   -2.1775 H   0  0  0  0  0  0  0  0  0  0  0  0
   -7.2804   -4.6328   -0.9928 H   0  0  0  0  0  0  0  0  0  0  0  0
   -6.3748   -3.1138   -0.9362 H   0  0  0  0  0  0  0  0  0  0  0  0
   -3.6150   -5.7837    1.4355 H   0  0  0  0  0  0  0  0  0  0  0  0
   -1.5842   -4.7360    2.1702 H   0  0  0  0  0  0  0  0  0  0  0  0
   -0.0861   -2.9375    2.2434 H   0  0  0  0  0  0  0  0  0  0  0  0
    3.3620    0.1356    2.8411 H   0  0  0  0  0  0  0  0  0  0  0  0
    4.9703    3.0815    0.8684 H   0  0  0  0  0  0  0  0  0  0  0  0
    4.3527   -0.7288    0.9133 H   0  0  0  0  0  0  0  0  0  0  0  0
    5.7376   -2.3192   -0.2643 H   0  0  0  0  0  0  0  0  0  0  0  0
    8.8444   -1.6704   -1.4334 H   0  0  0  0  0  0  0  0  0  0  0  0
    8.1410    0.8739   -1.6747 H   0  0  0  0  0  0  0  0  0  0  0  0
    6.7857    2.4821   -0.5151 H   0  0  0  0  0  0  0  0  0  0  0  0
   -0.1916    1.5348   -2.1559 H   0  0  0  0  0  0  0  0  0  0  0  0
   -1.6820    3.2355   -2.9136 H   0  0  0  0  0  0  0  0  0  0  0  0
   -3.4519    4.9124   -2.4375 H   0  0  0  0  0  0  0  0  0  0  0  0
   -3.3452    3.8893    1.6834 H   0  0  0  0  0  0  0  0  0  0  0  0
   -1.6035    2.2339    1.2365 H   0  0  0  0  0  0  0  0  0  0  0  0
   -2.4503   -1.3372   -0.2600 H   0  0  0  0  0  0  0  0  0  0  0  0
   -4.4772   -2.3769   -0.9998 H   0  0  0  0  0  0  0  0  0  0  0  0
  1  2  1  0
  2  3  1  0
  3  4  2  0
  4  5  1  0
  5  6  2  0
  6  7  1  0
  7  8  1  0
  8  9  2  0
  9 10  1  0
 10 11  1  0
 11 12  1  0
 12 13  2  3
 13 14  1  0
 14 15  2  0
 15 16  1  0
 16 17  2  0
 17 18  1  0
 17 19  1  0
 19 20  2  0
 10 21  2  0
 21 22  1  0
 22 23  1  0
 23 24  1  0
 24 25  2  0
 25 26  1  0
 26 27  2  0
 27 28  1  0
 28 29  2  0
 27 30  1  0
 30 31  2  0
 30 32  1  0
 22 33  2  0
  6 34  1  0
 34 35  2  0
 35  3  1  0
 33  8  1  0
 20 14  1  0
 29 24  1  0
  1 36  1  0
  1 37  1  0
  1 38  1  0
  4 39  1  0
  5 40  1  0
  7 41  1  0
 11 42  1  0
 13 43  1  0
 15 44  1  0
 16 45  1  0
 18 46  1  0
 19 47  1  0
 20 48  1  0
 23 49  1  0
 25 50  1  0
 26 51  1  0
 28 52  1  0
 29 53  1  0
 34 54  1  0
 35 55  1  0
M  CHG  2  30   1  32  -1
M  END
>  <Batch_No>  (397) 
STK747756

>  <EC50_nM>  (397) 
532

>  <Set>  (397) 
Probe-like

>  <Molecular_Weight>  (397) 
472.4561

>  <ALogP>  (397) 
3.952

$$$$
MMV665824
     RDKit          3D

 36 39  0  0  0  0  0  0  0  0999 V2000
    2.6929   -2.2388   -0.2505 C   0  0  0  0  0  0  0  0  0  0  0  0
    2.1635   -0.9335    0.1027 N   0  0  0  0  0  0  0  0  0  0  0  0
    0.8825   -0.6028    0.3499 C   0  0  0  0  0  0  0  0  0  0  0  0
    0.9067    0.7255    0.6316 N   0  0  0  0  0  0  0  0  0  0  0  0
    2.1405    1.2081    0.5652 C   0  0  0  0  0  0  0  0  0  0  0  0
    2.6560    2.4739    0.7658 C   0  0  0  0  0  0  0  0  0  0  0  0
    4.0107    2.6902    0.6257 C   0  0  0  0  0  0  0  0  0  0  0  0
    4.8492    1.6323    0.2834 C   0  0  0  0  0  0  0  0  0  0  0  0
    4.3093    0.3596    0.0847 C   0  0  0  0  0  0  0  0  0  0  0  0
    2.9525    0.1511    0.2267 C   0  0  0  0  0  0  0  0  0  0  0  0
   -0.2080   -1.5373    0.3277 C   0  0  0  0  0  0  0  0  0  0  0  0
    0.0915   -2.7746    0.1994 O   0  0  0  0  0  0  0  0  0  0  0  0
   -1.6126   -1.2329    0.4391 C   0  0  0  0  0  0  0  0  0  0  0  0
   -2.3240   -1.9184    1.4314 C   0  0  0  0  0  0  0  0  0  0  0  0
   -3.6621   -1.6439    1.6370 C   0  0  0  0  0  0  0  0  0  0  0  0
   -4.3432   -0.6884    0.8746 C   0  0  0  0  0  0  0  0  0  0  0  0
   -3.6369   -0.0229   -0.0965 C   0  0  0  0  0  0  0  0  0  0  0  0
   -4.3195    0.9067   -0.8540 C   0  0  0  0  0  0  0  0  0  0  0  0
   -3.6452    1.5819   -1.8494 C   0  0  0  0  0  0  0  0  0  0  0  0
   -2.3097    1.3029   -2.0529 C   0  0  0  0  0  0  0  0  0  0  0  0
   -1.6488    0.3706   -1.2836 C   0  0  0  0  0  0  0  0  0  0  0  0
   -2.2958   -0.3020   -0.2989 C   0  0  0  0  0  0  0  0  0  0  0  0
    3.7986   -2.2538   -0.2367 H   0  0  0  0  0  0  0  0  0  0  0  0
    2.2893   -2.6031   -1.2169 H   0  0  0  0  0  0  0  0  0  0  0  0
    2.3918   -3.0111    0.5170 H   0  0  0  0  0  0  0  0  0  0  0  0
    1.9600    3.2617    1.0306 H   0  0  0  0  0  0  0  0  0  0  0  0
    4.4198    3.6981    0.7856 H   0  0  0  0  0  0  0  0  0  0  0  0
    5.9275    1.7827    0.1672 H   0  0  0  0  0  0  0  0  0  0  0  0
    4.9470   -0.4727   -0.1817 H   0  0  0  0  0  0  0  0  0  0  0  0
   -1.8460   -2.6659    2.0478 H   0  0  0  0  0  0  0  0  0  0  0  0
   -4.2213   -2.1686    2.4023 H   0  0  0  0  0  0  0  0  0  0  0  0
   -5.3823   -0.5244    1.0876 H   0  0  0  0  0  0  0  0  0  0  0  0
   -5.3537    1.1113   -0.6845 H   0  0  0  0  0  0  0  0  0  0  0  0
   -4.1877    2.3211   -2.4513 H   0  0  0  0  0  0  0  0  0  0  0  0
   -1.7723    1.8278   -2.8327 H   0  0  0  0  0  0  0  0  0  0  0  0
   -0.6202    0.1895   -1.5064 H   0  0  0  0  0  0  0  0  0  0  0  0
  1  2  1  0
  2  3  1  0
  3  4  2  0
  4  5  1  0
  5  6  2  0
  6  7  1  0
  7  8  2  0
  8  9  1  0
  9 10  2  0
  3 11  1  0
 11 12  2  0
 11 13  1  0
 13 14  2  0
 14 15  1  0
 15 16  2  0
 16 17  1  0
 17 18  2  0
 18 19  1  0
 19 20  2  0
 20 21  1  0
 21 22  2  0
 10  2  1  0
 10  5  1  0
 22 13  1  0
 22 17  1  0
  1 23  1  0
  1 24  1  0
  1 25  1  0
  6 26  1  0
  7 27  1  0
  8 28  1  0
  9 29  1  0
 14 30  1  0
 15 31  1  0
 16 32  1  0
 18 33  1  0
 19 34  1  0
 20 35  1  0
 21 36  1  0
M  END
>  <Batch_No>  (398) 
OSSK_377066

>  <EC50_nM>  (398) 
ND

>  <Set>  (398) 
Probe-like

>  <Molecular_Weight>  (398) 
286.32726

>  <ALogP>  (398) 
4.27

$$$$
MMV665812
     RDKit          3D

 40 41  0  0  0  0  0  0  0  0999 V2000
   -6.8656    0.0166    0.4887 C   0  0  0  0  0  0  0  0  0  0  0  0
   -5.8944    0.8855   -0.2822 C   0  0  0  0  0  0  0  0  0  0  0  0
   -4.5043    0.3999   -0.0784 C   0  0  0  0  0  0  0  0  0  0  0  0
   -3.8926   -0.5289   -0.8706 C   0  0  0  0  0  0  0  0  0  0  0  0
   -2.5896   -0.9576   -0.6470 C   0  0  0  0  0  0  0  0  0  0  0  0
   -1.8979   -0.4179    0.4175 C   0  0  0  0  0  0  0  0  0  0  0  0
   -0.5091   -0.7880    0.7629 C   0  0  0  0  0  0  0  0  0  0  0  0
    0.4891    0.0371    0.1112 N   0  0  0  0  0  0  0  0  0  0  0  0
    1.8372   -0.3521    0.4754 C   0  0  0  0  0  0  0  0  0  0  0  0
    2.7940    0.5640   -0.2533 C   0  0  0  0  0  0  0  0  0  0  0  0
    2.6203    1.8890    0.0651 O   0  0  0  0  0  0  0  0  0  0  0  0
    4.2103    0.1499    0.0070 C   0  0  0  0  0  0  0  0  0  0  0  0
    4.7540    0.5688    1.2034 C   0  0  0  0  0  0  0  0  0  0  0  0
    6.0513    0.2497    1.5560 C   0  0  0  0  0  0  0  0  0  0  0  0
    6.7987   -0.5074    0.6713 C   0  0  0  0  0  0  0  0  0  0  0  0
    6.2350   -0.9237   -0.5348 C   0  0  0  0  0  0  0  0  0  0  0  0
    4.9373   -0.6037   -0.8861 C   0  0  0  0  0  0  0  0  0  0  0  0
   -2.5161    0.5322    1.2321 C   0  0  0  0  0  0  0  0  0  0  0  0
   -3.8075    0.9374    0.9863 C   0  0  0  0  0  0  0  0  0  0  0  0
   -7.7296    0.6301    0.8413 H   0  0  0  0  0  0  0  0  0  0  0  0
   -7.2788   -0.7344   -0.1975 H   0  0  0  0  0  0  0  0  0  0  0  0
   -6.2875   -0.4121    1.3286 H   0  0  0  0  0  0  0  0  0  0  0  0
   -6.0070    1.9266    0.0975 H   0  0  0  0  0  0  0  0  0  0  0  0
   -6.1481    0.9425   -1.3606 H   0  0  0  0  0  0  0  0  0  0  0  0
   -4.4477   -0.9374   -1.6945 H   0  0  0  0  0  0  0  0  0  0  0  0
   -2.1033   -1.6936   -1.2737 H   0  0  0  0  0  0  0  0  0  0  0  0
   -0.3534   -1.8170    0.3253 H   0  0  0  0  0  0  0  0  0  0  0  0
   -0.3230   -0.9084    1.8375 H   0  0  0  0  0  0  0  0  0  0  0  0
    0.4469   -0.0416   -0.9274 H   0  0  0  0  0  0  0  0  0  0  0  0
    2.0240   -0.3983    1.5516 H   0  0  0  0  0  0  0  0  0  0  0  0
    2.0039   -1.3630    0.0491 H   0  0  0  0  0  0  0  0  0  0  0  0
    2.6404    0.4366   -1.3448 H   0  0  0  0  0  0  0  0  0  0  0  0
    1.8180    2.0423    0.6314 H   0  0  0  0  0  0  0  0  0  0  0  0
    4.1719    1.1627    1.9006 H   0  0  0  0  0  0  0  0  0  0  0  0
    6.4718    0.5850    2.5029 H   0  0  0  0  0  0  0  0  0  0  0  0
    7.8306   -0.7734    0.9287 H   0  0  0  0  0  0  0  0  0  0  0  0
    6.8071   -1.5200   -1.2439 H   0  0  0  0  0  0  0  0  0  0  0  0
    4.4888   -0.9203   -1.8181 H   0  0  0  0  0  0  0  0  0  0  0  0
   -2.0049    0.9627    2.0578 H   0  0  0  0  0  0  0  0  0  0  0  0
   -4.2702    1.6802    1.6351 H   0  0  0  0  0  0  0  0  0  0  0  0
  1  2  1  0
  2  3  1  0
  3  4  2  0
  4  5  1  0
  5  6  2  0
  6  7  1  0
  7  8  1  0
  8  9  1  0
  9 10  1  0
 10 11  1  0
 10 12  1  0
 12 13  2  0
 13 14  1  0
 14 15  2  0
 15 16  1  0
 16 17  2  0
  6 18  1  0
 18 19  2  0
 19  3  1  0
 17 12  1  0
  1 20  1  0
  1 21  1  0
  1 22  1  0
  2 23  1  0
  2 24  1  0
  4 25  1  0
  5 26  1  0
  7 27  1  0
  7 28  1  0
  8 29  1  0
  9 30  1  0
  9 31  1  0
 10 32  1  0
 11 33  1  0
 13 34  1  0
 14 35  1  0
 15 36  1  0
 16 37  1  0
 17 38  1  0
 18 39  1  0
 19 40  1  0
M  END
>  <Batch_No>  (399) 
OSSK_925769

>  <EC50_nM>  (399) 
ND

>  <Set>  (399) 
Probe-like

>  <Molecular_Weight>  (399) 
255.35473

>  <ALogP>  (399) 
3.382

$$$$
MMV001041
     RDKit          3D

 37 39  0  0  0  0  0  0  0  0999 V2000
   -3.6913    2.5277    0.9026 O   0  0  0  0  0  0  0  0  0  0  0  0
   -2.9845    2.6760   -0.3056 C   0  0  0  0  0  0  0  0  0  0  0  0
   -1.7876    1.7380   -0.2230 C   0  0  0  0  0  0  0  0  0  0  0  0
   -2.2170    0.3520   -0.0560 N   0  0  0  0  0  0  0  0  0  0  0  0
   -1.2277   -0.6637    0.0401 C   0  0  0  0  0  0  0  0  0  0  0  0
    0.0700   -0.3328   -0.0239 N   0  0  0  0  0  0  0  0  0  0  0  0
    1.1038   -1.1739    0.0514 C   0  0  0  0  0  0  0  0  0  0  0  0
    2.4640   -0.8240   -0.0160 N   0  0  0  0  0  0  0  0  0  0  0  0
    3.0105    0.4616   -0.1734 C   0  0  0  0  0  0  0  0  0  0  0  0
    4.4041    0.6121   -0.2189 C   0  0  0  0  0  0  0  0  0  0  0  0
    5.0033    1.8404   -0.3708 C   0  0  0  0  0  0  0  0  0  0  0  0
    4.2562    2.9912   -0.4866 C   0  0  0  0  0  0  0  0  0  0  0  0
    4.9493    4.5744   -0.6808 Cl  0  0  0  0  0  0  0  0  0  0  0  0
    2.8845    2.8735   -0.4454 C   0  0  0  0  0  0  0  0  0  0  0  0
    1.8837    4.3231   -0.5900 Cl  0  0  0  0  0  0  0  0  0  0  0  0
    2.2922    1.6266   -0.2914 C   0  0  0  0  0  0  0  0  0  0  0  0
    0.7784   -2.4936    0.2087 N   0  0  0  0  0  0  0  0  0  0  0  0
   -0.4962   -2.9096    0.2820 C   0  0  0  0  0  0  0  0  0  0  0  0
   -0.7947   -4.2480    0.4409 C   0  0  0  0  0  0  0  0  0  0  0  0
   -2.1208   -4.6606    0.5149 C   0  0  0  0  0  0  0  0  0  0  0  0
   -3.1567   -3.7456    0.4312 C   0  0  0  0  0  0  0  0  0  0  0  0
   -2.8401   -2.4111    0.2724 C   0  0  0  0  0  0  0  0  0  0  0  0
   -1.5276   -1.9985    0.1987 C   0  0  0  0  0  0  0  0  0  0  0  0
   -3.6568    3.3415    1.4524 H   0  0  0  0  0  0  0  0  0  0  0  0
   -3.6201    2.4791   -1.1924 H   0  0  0  0  0  0  0  0  0  0  0  0
   -2.6474    3.7293   -0.3467 H   0  0  0  0  0  0  0  0  0  0  0  0
   -1.2069    2.0539    0.6687 H   0  0  0  0  0  0  0  0  0  0  0  0
   -1.1649    1.8427   -1.1257 H   0  0  0  0  0  0  0  0  0  0  0  0
   -3.2367    0.1954   -0.0175 H   0  0  0  0  0  0  0  0  0  0  0  0
    3.1645   -1.6214    0.0607 H   0  0  0  0  0  0  0  0  0  0  0  0
    5.0675   -0.2423   -0.1351 H   0  0  0  0  0  0  0  0  0  0  0  0
    6.0829    1.9214   -0.4019 H   0  0  0  0  0  0  0  0  0  0  0  0
    1.2179    1.6191   -0.2688 H   0  0  0  0  0  0  0  0  0  0  0  0
   -0.0018   -4.9798    0.5086 H   0  0  0  0  0  0  0  0  0  0  0  0
   -2.3926   -5.7034    0.6395 H   0  0  0  0  0  0  0  0  0  0  0  0
   -4.1942   -4.0502    0.4870 H   0  0  0  0  0  0  0  0  0  0  0  0
   -3.6672   -1.7202    0.2101 H   0  0  0  0  0  0  0  0  0  0  0  0
  1  2  1  0
  2  3  1  0
  3  4  1  0
  4  5  1  0
  5  6  2  0
  6  7  1  0
  7  8  1  0
  8  9  1  0
  9 10  2  0
 10 11  1  0
 11 12  2  0
 12 13  1  0
 12 14  1  0
 14 15  1  0
 14 16  2  0
  7 17  2  0
 17 18  1  0
 18 19  2  0
 19 20  1  0
 20 21  2  0
 21 22  1  0
 22 23  2  0
 23  5  1  0
 16  9  1  0
 23 18  1  0
  1 24  1  0
  2 25  1  0
  2 26  1  0
  3 27  1  0
  3 28  1  0
  4 29  1  0
  8 30  1  0
 10 31  1  0
 11 32  1  0
 16 33  1  0
 19 34  1  0
 20 35  1  0
 21 36  1  0
 22 37  1  0
M  END
>  <Batch_No>  (400) 
OSSL_323949

>  <EC50_nM>  (400) 
590

>  <Set>  (400) 
Probe-like

>  <Molecular_Weight>  (400) 
349.21456

>  <ALogP>  (400) 
3.486

$$$$
