  Mrv2311 12052024

 26 28  0  0  0  0            999 V2000
   -4.5000    1.2990    0.0000 C   0  0  0  0  0  0  0  0  0  0  0  0
   -5.2145    0.8865    0.0000 C   0  0  0  0  0  0  0  0  0  0  0  0
   -5.2145    0.0615    0.0000 C   0  0  0  0  0  0  0  0  0  0  0  0
   -4.5000   -0.3510    0.0000 C   0  0  0  0  0  0  0  0  0  0  0  0
   -3.7855    0.0615    0.0000 C   0  0  0  0  0  0  0  0  0  0  0  0
   -3.7855    0.8865    0.0000 C   0  0  0  0  0  0  0  0  0  0  0  0
   -3.0710   -0.3510    0.0000 N   0  0  0  0  0  0  0  0  0  0  0  0
   -2.3565    0.0615    0.0000 C   0  0  0  0  0  0  0  0  0  0  0  0
   -1.6420   -0.3510    0.0000 C   0  0  0  0  0  0  0  0  0  0  0  0
   -0.9275    0.0615    0.0000 C   0  0  0  0  0  0  0  0  0  0  0  0
   -0.2130   -0.3510    0.0000 C   0  0  0  0  0  0  0  0  0  0  0  0
    0.5015    0.0615    0.0000 N   0  0  0  0  0  0  0  0  0  0  0  0
    1.2160   -0.3510    0.0000 C   0  0  0  0  0  0  0  0  0  0  0  0
    1.9305    0.0615    0.0000 C   0  0  0  0  0  0  0  0  0  0  0  0
    2.6450   -0.3510    0.0000 C   0  0  0  0  0  0  0  0  0  0  0  0
    3.3595    0.0615    0.0000 C   0  0  0  0  0  0  0  0  0  0  0  0
    4.0740   -0.3510    0.0000 C   0  0  0  0  0  0  0  0  0  0  0  0
    4.7885    0.0615    0.0000 C   0  0  0  0  0  0  0  0  0  0  0  0
    5.5030   -0.3510    0.0000 C   0  0  0  0  0  0  0  0  0  0  0  0
    6.2175    0.0615    0.0000 C   0  0  0  0  0  0  0  0  0  0  0  0
    6.9320   -0.3510    0.0000 Cl  0  0  0  0  0  0  0  0  0  0  0  0
    0.5015    0.8865    0.0000 C   0  0  0  0  0  0  0  0  0  0  0  0
    1.2160    1.2990    0.0000 C   0  0  0  0  0  0  0  0  0  0  0  0
   -3.0710   -1.1760    0.0000 C   0  0  0  0  0  0  0  0  0  0  0  0
   -2.3565   -1.5885    0.0000 C   0  0  0  0  0  0  0  0  0  0  0  0
   -5.9290   -0.3510    0.0000 Cl  0  0  0  0  0  0  0  0  0  0  0  0
  1  2  2  0  0  0  0
  2  3  1  0  0  0  0
  3  4  2  0  0  0  0
  4  5  1  0  0  0  0
  5  6  2  0  0  0  0
  6  1  1  0  0  0  0
  5  7  1  0  0  0  0
  7  8  1  0  0  0  0
  8  9  1  0  0  0  0
  9 10  1  0  0  0  0
 10 11  1  0  0  0  0
 11 12  1  0  0  0  0
 12 13  1  0  0  0  0
 13 14  1  0  0  0  0
 14 15  1  0  0  0  0
 15 16  1  0  0  0  0
 16 17  1  0  0  0  0
 17 18  1  0  0  0  0
 18 19  1  0  0  0  0
 19 20  1  0  0  0  0
 20 21  1  0  0  0  0
 12 22  1  0  0  0  0
 22 23  1  0  0  0  0
  7 24  1  0  0  0  0
 24 25  1  0  0  0  0
  3 26  1  0  0  0  0
M  END
> <ID>
CHLOROQUINE

> <NAME>
Chloroquine

> <ACTIVITY>
Antimalarial

$$$$

  Mrv2311 12052024

 20 22  0  0  0  0            999 V2000
   -3.0000    1.2990    0.0000 C   0  0  0  0  0  0  0  0  0  0  0  0
   -3.7145    0.8865    0.0000 C   0  0  0  0  0  0  0  0  0  0  0  0
   -3.7145    0.0615    0.0000 C   0  0  0  0  0  0  0  0  0  0  0  0
   -3.0000   -0.3510    0.0000 C   0  0  0  0  0  0  0  0  0  0  0  0
   -2.2855    0.0615    0.0000 C   0  0  0  0  0  0  0  0  0  0  0  0
   -2.2855    0.8865    0.0000 C   0  0  0  0  0  0  0  0  0  0  0  0
   -1.5710   -0.3510    0.0000 O   0  0  0  0  0  0  0  0  0  0  0  0
   -0.8565    0.0615    0.0000 C   0  0  0  0  0  0  0  0  0  0  0  0
   -0.1420   -0.3510    0.0000 C   0  0  0  0  0  0  0  0  0  0  0  0
    0.5725    0.0615    0.0000 C   0  0  0  0  0  0  0  0  0  0  0  0
    1.2870   -0.3510    0.0000 C   0  0  0  0  0  0  0  0  0  0  0  0
    2.0015    0.0615    0.0000 C   0  0  0  0  0  0  0  0  0  0  0  0
    2.7160   -0.3510    0.0000 C   0  0  0  0  0  0  0  0  0  0  0  0
    3.4305    0.0615    0.0000 C   0  0  0  0  0  0  0  0  0  0  0  0
    4.1450   -0.3510    0.0000 C   0  0  0  0  0  0  0  0  0  0  0  0
    4.8595    0.0615    0.0000 C   0  0  0  0  0  0  0  0  0  0  0  0
    0.5725    0.8865    0.0000 C   0  0  0  0  0  0  0  0  0  0  0  0
    1.2870    1.2990    0.0000 C   0  0  0  0  0  0  0  0  0  0  0  0
    2.0015    0.8865    0.0000 C   0  0  0  0  0  0  0  0  0  0  0  0
   -0.8565    0.8865    0.0000 C   0  0  0  0  0  0  0  0  0  0  0  0
  1  2  2  0  0  0  0
  2  3  1  0  0  0  0
  3  4  2  0  0  0  0
  4  5  1  0  0  0  0
  5  6  2  0  0  0  0
  6  1  1  0  0  0  0
  5  7  1  0  0  0  0
  7  8  1  0  0  0  0
  8  9  1  0  0  0  0
  9 10  1  0  0  0  0
 10 11  1  0  0  0  0
 11 12  1  0  0  0  0
 12 13  1  0  0  0  0
 13 14  1  0  0  0  0
 14 15  1  0  0  0  0
 15 16  1  0  0  0  0
 10 17  1  0  0  0  0
 17 18  1  0  0  0  0
 18 19  1  0  0  0  0
 19 12  1  0  0  0  0
  8 20  1  0  0  0  0
M  END
> <ID>
ARTEMISININ

> <NAME>
Artemisinin

> <ACTIVITY>
Antimalarial

$$$$ 