
     RDKit          2D

 48 49  0  0  0  0  0  0  0  0999 V2000
    4.4730    3.2773    0.0000 C   0  0  0  0  0  0  0  0  0  0  0  0
    4.3312    1.7841    0.0000 C   0  0  0  0  0  0  0  0  0  0  0  0
    4.1893    0.2908    0.0000 N   0  0  0  0  0  0  0  0  0  0  0  0
    5.4116   -0.5787    0.0000 C   0  0  0  0  0  0  0  0  0  0  0  0
    6.6339   -1.4482    0.0000 C   0  0  0  0  0  0  0  0  0  0  0  0
    2.8252   -0.3330    0.0000 C   0  0  0  0  0  0  0  0  0  0  0  0
    1.4611   -0.9568    0.0000 C   0  0  0  0  0  0  0  0  0  0  0  0
    0.0969   -1.5806    0.0000 C   0  0  0  0  0  0  0  0  0  0  0  0
   -1.2672   -2.2044    0.0000 C   0  0  0  0  0  0  0  0  0  0  0  0
   -2.6314   -2.8282    0.0000 C   0  0  0  0  0  0  0  0  0  0  0  0
   -1.8910   -0.8403    0.0000 N   0  0  0  0  0  0  0  0  0  0  0  0
   -3.3843   -0.6984    0.0000 C   0  0  0  0  0  0  0  0  0  0  0  0
   -4.0081    0.6657    0.0000 C   0  0  0  0  0  0  0  0  0  0  0  0
   -3.1386    1.8880    0.0000 C   0  0  0  0  0  0  0  0  0  0  0  0
   -3.7624    3.2521    0.0000 C   0  0  0  0  0  0  0  0  0  0  0  0
   -5.2557    3.3940    0.0000 C   0  0  0  0  0  0  0  0  0  0  0  0
   -6.1252    2.1717    0.0000 C   0  0  0  0  0  0  0  0  0  0  0  0
   -5.5014    0.8076    0.0000 C   0  0  0  0  0  0  0  0  0  0  0  0
   -6.3709   -0.4147    0.0000 N   0  0  0  0  0  0  0  0  0  0  0  0
   -5.7471   -1.7789    0.0000 C   0  0  0  0  0  0  0  0  0  0  0  0
   -4.2538   -1.9207    0.0000 C   0  0  0  0  0  0  0  0  0  0  0  0
   -5.8795    4.7581    0.0000 Cl  0  0  0  0  0  0  0  0  0  0  0  0
    4.6149    4.7706    0.0000 H   0  0  0  0  0  0  0  0  0  0  0  0
    2.9797    3.4192    0.0000 H   0  0  0  0  0  0  0  0  0  0  0  0
    5.9663    3.1355    0.0000 H   0  0  0  0  0  0  0  0  0  0  0  0
    2.8379    1.9259    0.0000 H   0  0  0  0  0  0  0  0  0  0  0  0
    5.8245    1.6422    0.0000 H   0  0  0  0  0  0  0  0  0  0  0  0
    4.5422   -1.8010    0.0000 H   0  0  0  0  0  0  0  0  0  0  0  0
    6.2811    0.6436    0.0000 H   0  0  0  0  0  0  0  0  0  0  0  0
    7.8562   -2.3176    0.0000 H   0  0  0  0  0  0  0  0  0  0  0  0
    7.5034   -0.2259    0.0000 H   0  0  0  0  0  0  0  0  0  0  0  0
    5.7645   -2.6705    0.0000 H   0  0  0  0  0  0  0  0  0  0  0  0
    2.2014    1.0311    0.0000 H   0  0  0  0  0  0  0  0  0  0  0  0
    3.4490   -1.6971    0.0000 H   0  0  0  0  0  0  0  0  0  0  0  0
    2.0849   -2.3209    0.0000 H   0  0  0  0  0  0  0  0  0  0  0  0
    0.8373    0.4073    0.0000 H   0  0  0  0  0  0  0  0  0  0  0  0
   -0.3559   -0.1506    0.0000 H   0  0  0  0  0  0  0  0  0  0  0  0
    0.7207   -2.9447    0.0000 H   0  0  0  0  0  0  0  0  0  0  0  0
   -0.6434   -3.5685    0.0000 H   0  0  0  0  0  0  0  0  0  0  0  0
   -3.3105   -3.2456    0.0000 H   0  0  0  0  0  0  0  0  0  0  0  0
   -2.0076   -4.1923    0.0000 H   0  0  0  0  0  0  0  0  0  0  0  0
   -3.3890   -1.8784    0.0000 H   0  0  0  0  0  0  0  0  0  0  0  0
   -1.1770    0.4789    0.0000 H   0  0  0  0  0  0  0  0  0  0  0  0
   -1.6453    1.7462    0.0000 H   0  0  0  0  0  0  0  0  0  0  0  0
   -2.8929    4.4744    0.0000 H   0  0  0  0  0  0  0  0  0  0  0  0
   -7.6185    2.3135    0.0000 H   0  0  0  0  0  0  0  0  0  0  0  0
   -6.6165   -3.0012    0.0000 H   0  0  0  0  0  0  0  0  0  0  0  0
   -4.0131   -2.6807    0.0000 H   0  0  0  0  0  0  0  0  0  0  0  0
  1  2  1  0
  2  3  1  0
  3  4  1  0
  4  5  1  0
  3  6  1  0
  6  7  1  0
  7  8  1  0
  8  9  1  0
  9 10  1  0
  9 11  1  0
 11 12  1  0
 12 13  2  0
 13 14  1  0
 14 15  2  0
 15 16  1  0
 16 17  2  0
 17 18  1  0
 18 19  2  0
 19 20  1  0
 20 21  2  0
 16 22  1  0
 21 12  1  0
 18 13  1  0
  1 23  1  0
  1 24  1  0
  1 25  1  0
  2 26  1  0
  2 27  1  0
  4 28  1  0
  4 29  1  0
  5 30  1  0
  5 31  1  0
  5 32  1  0
  6 33  1  0
  6 34  1  0
  7 35  1  0
  7 36  1  0
  8 37  1  0
  8 38  1  0
  9 39  1  0
 10 40  1  0
 10 41  1  0
 10 42  1  0
 11 43  1  0
 14 44  1  0
 15 45  1  0
 17 46  1  0
 20 47  1  0
 21 48  1  0
M  END
>  <ID>  (1) 
COMPOUND_001

>  <NAME>  (1) 
Chloroquine

>  <ACTIVITY>  (1) 
Antimalarial

>  <SMILES>  (1) 
CCN(CC)CCCC(C)NC1=C2C=CC(=CC2=NC=C1)Cl

$$$$

     RDKit          2D

 37 39  0  0  0  0  0  0  0  0999 V2000
   -6.3464    0.6378    0.0000 C   0  0  0  0  0  0  0  0  0  0  0  0
   -5.3171   -0.4532    0.0000 O   0  0  0  0  0  0  0  0  0  0  0  0
   -3.8575   -0.1073    0.0000 C   0  0  0  0  0  0  0  0  0  0  0  0
   -3.4273    1.3297    0.0000 C   0  0  0  0  0  0  0  0  0  0  0  0
   -1.9677    1.6756    0.0000 C   0  0  0  0  0  0  0  0  0  0  0  0
   -0.9384    0.5845    0.0000 C   0  0  0  0  0  0  0  0  0  0  0  0
   -1.3686   -0.8525    0.0000 C   0  0  0  0  0  0  0  0  0  0  0  0
   -2.8282   -1.1984    0.0000 C   0  0  0  0  0  0  0  0  0  0  0  0
    0.5212    0.9304    0.0000 C   0  0  0  0  0  0  0  0  0  0  0  0
    1.9808    1.2763    0.0000 C   0  0  0  0  0  0  0  0  0  0  0  0
    3.0101    0.1852    0.0000 C   0  0  0  0  0  0  0  0  0  0  0  0
    4.4697    0.5311    0.0000 C   0  0  0  0  0  0  0  0  0  0  0  0
    4.8999    1.9681    0.0000 C   0  0  0  0  0  0  0  0  0  0  0  0
    3.8706    3.0592    0.0000 C   0  0  0  0  0  0  0  0  0  0  0  0
    2.4110    2.7133    0.0000 N   0  0  0  0  0  0  0  0  0  0  0  0
    0.8671   -0.5292    0.0000 C   0  0  0  0  0  0  0  0  0  0  0  0
    2.3041   -0.9594    0.0000 C   0  0  0  0  0  0  0  0  0  0  0  0
    2.6500   -2.4190    0.0000 C   0  0  0  0  0  0  0  0  0  0  0  0
    1.5589   -3.4483    0.0000 C   0  0  0  0  0  0  0  0  0  0  0  0
    0.1219   -3.0181    0.0000 C   0  0  0  0  0  0  0  0  0  0  0  0
   -0.2240   -1.5585    0.0000 N   0  0  0  0  0  0  0  0  0  0  0  0
   -7.3758    1.7289    0.0000 H   0  0  0  0  0  0  0  0  0  0  0  0
   -7.4375   -0.3915    0.0000 H   0  0  0  0  0  0  0  0  0  0  0  0
   -5.2554    1.6672    0.0000 H   0  0  0  0  0  0  0  0  0  0  0  0
   -4.4567    2.4207    0.0000 H   0  0  0  0  0  0  0  0  0  0  0  0
   -1.5375    3.1125    0.0000 H   0  0  0  0  0  0  0  0  0  0  0  0
   -0.9781   -1.5475    0.0000 H   0  0  0  0  0  0  0  0  0  0  0  0
   -3.2584   -2.6354    0.0000 H   0  0  0  0  0  0  0  0  0  0  0  0
    0.1753    2.3900    0.0000 H   0  0  0  0  0  0  0  0  0  0  0  0
    2.9404   -1.3132    0.0000 H   0  0  0  0  0  0  0  0  0  0  0  0
    5.4990   -0.5599    0.0000 H   0  0  0  0  0  0  0  0  0  0  0  0
    6.3595    2.3140    0.0000 H   0  0  0  0  0  0  0  0  0  0  0  0
    4.3008    4.4962    0.0000 H   0  0  0  0  0  0  0  0  0  0  0  0
    3.6118   -0.2247    0.0000 H   0  0  0  0  0  0  0  0  0  0  0  0
    4.0870   -2.8492    0.0000 H   0  0  0  0  0  0  0  0  0  0  0  0
    1.9048   -4.9079    0.0000 H   0  0  0  0  0  0  0  0  0  0  0  0
   -0.9691   -4.0475    0.0000 H   0  0  0  0  0  0  0  0  0  0  0  0
  1  2  1  0
  2  3  1  0
  3  4  2  0
  4  5  1  0
  5  6  2  0
  6  7  1  0
  7  8  2  0
  6  9  1  0
  9 10  1  0
 10 11  2  0
 11 12  1  0
 12 13  2  0
 13 14  1  0
 14 15  2  0
  9 16  1  0
 16 17  2  0
 17 18  1  0
 18 19  2  0
 19 20  1  0
 20 21  2  0
  8  3  1  0
 15 10  1  0
 21 16  1  0
  1 22  1  0
  1 23  1  0
  1 24  1  0
  4 25  1  0
  5 26  1  0
  7 27  1  0
  8 28  1  0
  9 29  1  0
 11 30  1  0
 12 31  1  0
 13 32  1  0
 14 33  1  0
 17 34  1  0
 18 35  1  0
 19 36  1  0
 20 37  1  0
M  END
>  <ID>  (2) 
COMPOUND_002

>  <NAME>  (2) 
Mefloquine_analog

>  <ACTIVITY>  (2) 
Antimalarial

>  <SMILES>  (2) 
COC1=CC=C(C=C1)C(C2=CC=CC=N2)C3=CC=CC=N3

$$$$
